Version,9.2.0;
Building,Tausendpfund,0.0,,0.04,0.4,FullExterior,25,6;
RunPeriod,RunPeriod,1,1,,12,31,,,No,No,No,Yes,Yes,No;
Timestep,6;
ConvergenceLimits,0,20,2,8;
GlobalGeometryRules,UpperLeftCorner,Counterclockwise,Relative,Relative,Relative;
Material,Brick.Wall,Smooth,0.18,2.3,2300,1100,0.9,0.7,0.7;
Material,Concrete.Floor,Smooth,0.2,2.3,2300,800,0.9,0.7,0.7;
Material,Concrete.Roof,Smooth,0.25,2.3,2300,800,0.9,0.7,0.7;
Material,Mass,Smooth,0.12,2.3,500,1000,0.8,0.8,0.7;
Material,Insulation,Smooth,0.18,0.035,20,1000,0.9,0.7,0.7;
Material,PerimeterInsulation,Smooth,0.05,0.035,20,1000,0.9,0.7,0.7;
Material,Plaster,Smooth,0.02,0.7,1400,1000,0.9,0.7,0.7;
Material,PlasterBoard,Rough,0.05,0.16,800,800,0.9,0.6,0.6;
Material,Screed.Floor,Smooth,0.08,1.4,2000,1000,0.9,0.7,0.7;
WindowMaterial:SimpleGlazingSystem,Glazing,0.87,0.35,0.1;
WindowMaterial:Shade,RollShade,0.3,0.5,0.3,0.5,0.9,0.05,0.003,0.1,0.05,0,0.5,0.5,0,;
Schedule:Compact,Office.HeatingSetPoint,,Through: 12/31,For: WeekDays SummerDesignDay WinterDesignDay CustomDay1 CustomDay2,Until: 6:00,15,Until: 18:00,20,Until: 24:00,15,For: WeekendsHoliday,Until: 24:00,15;
Schedule:Compact,Office.CoolingSetPoint,,Through: 12/31,For: WeekDays SummerDesignDay WinterDesignDay CustomDay1 CustomDay2,Until: 6:00,30,Until: 18:00,26,Until: 24:00,30,For: WeekendsHoliday,Until: 24:00,30;
Schedule:Compact,Office.ElectricEquipment,,Through: 12/31,For: WeekDays SummerDesignDay WinterDesignDay CustomDay1 CustomDay2,Until: 7:00,0.1,Until: 18:00,1,Until: 24:00,0.1,For: WeekendsHoliday,Until: 24:00,0.1;
Schedule:Compact,Office.Lights,,Through: 12/31,For: WeekDays SummerDesignDay WinterDesignDay CustomDay1 CustomDay2,Until: 7:00,0.1,Until: 18:00,1,Until: 24:00,0.1,For: WeekendsHoliday,Until: 24:00,0.1;
Schedule:Compact,Office.People,,Through: 12/31,For: WeekDays SummerDesignDay WinterDesignDay CustomDay1 CustomDay2,Until: 7:00,0,Until: 18:00,1,Until: 24:00,0,For: WeekendsHoliday,Until: 24:00,0;
Schedule:Compact,Office.Ventilation,,Through: 12/31,For: WeekDays SummerDesignDay WinterDesignDay CustomDay1 CustomDay2,Until: 7:00,0,Until: 18:00,1,Until: 24:00,0,For: WeekendsHoliday,Until: 24:00,0;
Schedule:Compact,Office.Activity,,Through: 12/31,For: AllDays,Until: 24:00,125;
Schedule:Compact,Always1,,Through: 12/31,For: AllDays,Until: 24:00,1;
Schedule:Compact,Always0.1,,Through: 12/31,For: AllDays,Until: 24:00,0.1;
SimulationControl,Yes,Yes,Yes,No,Yes;
Site:GroundTemperature:BuildingSurface,6.17,5.07,5.33,6.27,9.35,12.12,14.32,15.48,15.2,13.62,11.08,8.41;
Site:Location,MUNICH_DEU,48.13,11.7,1,529;
SizingPeriod:WeatherFileDays,Summer including Extreme Summer days,7,18,7,25,SummerDesignDay,Yes,Yes;
SizingPeriod:WeatherFileDays,Winter including Extreme Winter days,1,25,2,1,WinterDesignDay,Yes,Yes;
HVACTemplate:Thermostat,Office,Office.HeatingSetPoint,,Office.CoolingSetPoint,;
HVACTemplate:Plant:MixedWaterLoop,OnlyWaterLoop,,Intermittent,Default,,,34,,20,ConstantFlow,179352,SinglePump,Yes,Yes,Water,6,SequentialLoad;
HVACTemplate:Plant:Boiler,Boiler,HotWaterBoiler,autosize,0.95,Electricity,1,1.2,0.1,1.1,0.9,99;
HVACTemplate:Plant:Tower,MainTower,SingleSpeed,autosize,autosize,autosize,autosize,autosize,1,1.2;
OutputControl:Table:Style,XMLandHTML;
Output:Diagnostics,DisplayAdvancedReportVariables;
Output:Diagnostics,DisplayExtraWarnings;
Output:Surfaces:Drawing,dxf;
Output:Variable,*,Zone Air System Sensible Heating Rate,Monthly;
Output:Variable,*,Zone Air System Sensible Cooling Rate,Monthly;
Output:Variable,*,Zone Lights Electric Energy,Monthly;
Output:Variable,*,Zone Water to Air Heat Pump Electric Energy,Monthly;
Output:Variable,*,Boiler Electric Energy,Monthly;
Output:Variable,*,Chiller Electric Energy,Monthly;
Output:Variable,*,Cooling Tower Fan Electric Energy,Monthly;
ZoneList,Office,Office.0.0,Office.0.1,Office.0.2,Office.0.3,Stairs.0.0,Toilet.0.0,Corridor.0.0,Service.0.0;
Zone,Office.0.0;
BuildingSurface:Detailed,Office.0.0.Ground.Floor,Floor,GroundFloor,Office.0.0,Ground,,NoSun,NoWind,,4,0.0,0.0,0.0,0.0,12.75,0.0,6.0,12.75,0.0,6.0,0.0,0.0;
BuildingSurface:Detailed,Office.0.0.Ceiling,Ceiling,FloorCeiling,Office.0.0,Adiabatic,,NoSun,NoWind,,4,0.0,0.0,3.25,6.0,0.0,3.25,6.0,12.75,3.25,0.0,12.75,3.25;
BuildingSurface:Detailed,Office.0.0.External.Wall.0.West,Wall,ExternalWall,Office.0.0,Outdoors,,SunExposed,WindExposed,,4,0.0,12.75,0.0,0.0,0.0,0.0,0.0,0.0,3.25,0.0,12.75,3.25;
FenestrationSurface:Detailed,Office.0.0.External.Wall.0.West.Window.0,Window,Glazing,Office.0.0.External.Wall.0.West,,,,,4,0.0,12.55,0.6,0.0,11.55,0.6,0.0,11.55,2.4,0.0,12.55,2.4;
FenestrationSurface:Detailed,Office.0.0.External.Wall.0.West.Window.1,Window,Glazing,Office.0.0.External.Wall.0.West,,,,,4,0.0,9.95,0.01,0.0,6.35,0.01,0.0,6.35,2.4,0.0,9.95,2.4;
FenestrationSurface:Detailed,Office.0.0.External.Wall.0.West.Window.2,Window,Glazing,Office.0.0.External.Wall.0.West,,,,,4,0.0,4.75,0.6,0.0,3.75,0.6,0.0,3.75,2.4,0.0,4.75,2.4;
FenestrationSurface:Detailed,Office.0.0.External.Wall.0.West.Window.3,Window,Glazing,Office.0.0.External.Wall.0.West,,,,,4,0.0,2.15,0.01,0.0,1.15,0.01,0.0,1.15,2.4,0.0,2.15,2.4;
BuildingSurface:Detailed,Office.0.0.External.Wall.1.South,Wall,ExternalWall,Office.0.0,Outdoors,,SunExposed,WindExposed,,4,0.0,0.0,0.0,6.0,0.0,0.0,6.0,0.0,3.25,0.0,0.0,3.25;
FenestrationSurface:Detailed,Office.0.0.External.Wall.1.South.Window.0,Window,Glazing,Office.0.0.External.Wall.1.South,,,,,4,1.55,0.0,0.6,2.55,0.0,0.6,2.55,0.0,2.4,1.55,0.0,2.4;
FenestrationSurface:Detailed,Office.0.0.External.Wall.1.South.Window.1,Window,Glazing,Office.0.0.External.Wall.1.South,,,,,4,4.15,0.0,0.6,5.15,0.0,0.6,5.15,0.0,2.4,4.15,0.0,2.4;
BuildingSurface:Detailed,Office.0.0.Internal.Wall.2.East,Wall,InternalWall,Office.0.0,Zone,Corridor.0.0,NoSun,NoWind,,4,6.0,0.0,0.0,6.0,12.75,0.0,6.0,12.75,3.25,6.0,0.0,3.25;
BuildingSurface:Detailed,Office.0.0.Internal.Wall.3.North,Wall,InternalWall,Office.0.0,Zone,Stairs.0.0,NoSun,NoWind,,4,6.0,12.75,0.0,0.0,12.75,0.0,0.0,12.75,3.25,6.0,12.75,3.25;
Zone,Office.0.1;
BuildingSurface:Detailed,Office.0.1.Ground.Floor,Floor,GroundFloor,Office.0.1,Ground,,NoSun,NoWind,,4,0.0,15.75,0.0,0.0,26.7,0.0,6.0,26.7,0.0,6.0,15.75,0.0;
BuildingSurface:Detailed,Office.0.1.Ceiling,Ceiling,FloorCeiling,Office.0.1,Adiabatic,,NoSun,NoWind,,4,0.0,15.75,3.25,6.0,15.75,3.25,6.0,26.7,3.25,0.0,26.7,3.25;
BuildingSurface:Detailed,Office.0.1.External.Wall.0.West,Wall,ExternalWall,Office.0.1,Outdoors,,SunExposed,WindExposed,,4,0.0,26.7,0.0,0.0,15.75,0.0,0.0,15.75,3.25,0.0,26.7,3.25;
FenestrationSurface:Detailed,Office.0.1.External.Wall.0.West.Window.0,Window,Glazing,Office.0.1.External.Wall.0.West,,,,,4,0.0,25.55,0.6,0.0,24.55,0.6,0.0,24.55,2.4,0.0,25.55,2.4;
FenestrationSurface:Detailed,Office.0.1.External.Wall.0.West.Window.1,Window,Glazing,Office.0.1.External.Wall.0.West,,,,,4,0.0,22.95,0.6,0.0,21.95,0.6,0.0,21.95,2.4,0.0,22.95,2.4;
FenestrationSurface:Detailed,Office.0.1.External.Wall.0.West.Window.2,Window,Glazing,Office.0.1.External.Wall.0.West,,,,,4,0.0,20.35,0.6,0.0,19.35,0.6,0.0,19.35,2.4,0.0,20.35,2.4;
FenestrationSurface:Detailed,Office.0.1.External.Wall.0.West.Window.3,Window,Glazing,Office.0.1.External.Wall.0.West,,,,,4,0.0,17.75,0.01,0.0,16.75,0.01,0.0,16.75,2.4,0.0,17.75,2.4;
BuildingSurface:Detailed,Office.0.1.External.Wall.3.North,Wall,ExternalWall,Office.0.1,Outdoors,,SunExposed,WindExposed,,4,6.0,26.7,0.0,0.0,26.7,0.0,0.0,26.7,3.25,6.0,26.7,3.25;
FenestrationSurface:Detailed,Office.0.1.External.Wall.3.North.Window.0,Window,Glazing,Office.0.1.External.Wall.3.North,,,,,4,5.15,26.7,0.6,4.15,26.7,0.6,4.15,26.7,2.4,5.15,26.7,2.4;
FenestrationSurface:Detailed,Office.0.1.External.Wall.3.North.Window.1,Window,Glazing,Office.0.1.External.Wall.3.North,,,,,4,2.55,26.7,0.6,1.55,26.7,0.6,1.55,26.7,2.4,2.55,26.7,2.4;
BuildingSurface:Detailed,Office.0.1.Internal.Wall.1.South,Wall,InternalWall,Office.0.1,Zone,Stairs.0.0,NoSun,NoWind,,4,0.0,15.75,0.0,6.0,15.75,0.0,6.0,15.75,3.25,0.0,15.75,3.25;
BuildingSurface:Detailed,Office.0.1.Internal.Wall.2.East,Wall,InternalWall,Office.0.1,Zone,Corridor.0.0,NoSun,NoWind,,4,6.0,15.75,0.0,6.0,26.7,0.0,6.0,26.7,3.25,6.0,15.75,3.25;
Zone,Office.0.2;
BuildingSurface:Detailed,Office.0.2.Ground.Floor,Floor,GroundFloor,Office.0.2,Ground,,NoSun,NoWind,,4,8.5,15.75,0.0,8.5,26.7,0.0,14.5,26.7,0.0,14.5,15.75,0.0;
BuildingSurface:Detailed,Office.0.2.Ceiling,Ceiling,FloorCeiling,Office.0.2,Adiabatic,,NoSun,NoWind,,4,8.5,15.75,3.25,14.5,15.75,3.25,14.5,26.7,3.25,8.5,26.7,3.25;
BuildingSurface:Detailed,Office.0.2.External.Wall.2.East,Wall,ExternalWall,Office.0.2,Outdoors,,SunExposed,WindExposed,,4,14.5,15.75,0.0,14.5,26.7,0.0,14.5,26.7,3.25,14.5,15.75,3.25;
FenestrationSurface:Detailed,Office.0.2.External.Wall.2.East.Window.0,Window,Glazing,Office.0.2.External.Wall.2.East,,,,,4,14.5,24.55,0.6,14.5,25.55,0.6,14.5,25.55,2.4,14.5,24.55,2.4;
FenestrationSurface:Detailed,Office.0.2.External.Wall.2.East.Window.1,Window,Glazing,Office.0.2.External.Wall.2.East,,,,,4,14.5,21.95,0.6,14.5,22.95,0.6,14.5,22.95,2.4,14.5,21.95,2.4;
FenestrationSurface:Detailed,Office.0.2.External.Wall.2.East.Window.2,Window,Glazing,Office.0.2.External.Wall.2.East,,,,,4,14.5,19.35,0.6,14.5,20.35,0.6,14.5,20.35,2.4,14.5,19.35,2.4;
FenestrationSurface:Detailed,Office.0.2.External.Wall.2.East.Window.3,Window,Glazing,Office.0.2.External.Wall.2.East,,,,,4,14.5,16.75,0.01,14.5,17.75,0.01,14.5,17.75,2.4,14.5,16.75,2.4;
BuildingSurface:Detailed,Office.0.2.External.Wall.1.North,Wall,ExternalWall,Office.0.2,Outdoors,,SunExposed,WindExposed,,4,14.5,26.7,0.0,8.5,26.7,0.0,8.5,26.7,3.25,14.5,26.7,3.25;
FenestrationSurface:Detailed,Office.0.2.External.Wall.1.North.Window.0,Window,Glazing,Office.0.2.External.Wall.1.North,,,,,4,12.95,26.7,0.6,11.95,26.7,0.6,11.95,26.7,2.4,12.95,26.7,2.4;
FenestrationSurface:Detailed,Office.0.2.External.Wall.1.North.Window.1,Window,Glazing,Office.0.2.External.Wall.1.North,,,,,4,10.35,26.7,0.6,9.35,26.7,0.6,9.35,26.7,2.4,10.35,26.7,2.4;
BuildingSurface:Detailed,Office.0.2.Internal.Wall.3.South,Wall,InternalWall,Office.0.2,Zone,Service.0.0,NoSun,NoWind,,4,12.0,15.75,0.0,14.5,15.75,0.0,14.5,15.75,3.25,12.0,15.75,3.25;
BuildingSurface:Detailed,Office.0.2.Internal.Wall.4.South,Wall,InternalWall,Office.0.2,Zone,Toilet.0.0,NoSun,NoWind,,4,8.5,15.75,0.0,12.0,15.75,0.0,12.0,15.75,3.25,8.5,15.75,3.25;
BuildingSurface:Detailed,Office.0.2.Internal.Wall.0.West,Wall,InternalWall,Office.0.2,Zone,Corridor.0.0,NoSun,NoWind,,4,8.5,26.7,0.0,8.5,15.75,0.0,8.5,15.75,3.25,8.5,26.7,3.25;
Zone,Office.0.3;
BuildingSurface:Detailed,Office.0.3.Ground.Floor,Floor,GroundFloor,Office.0.3,Ground,,NoSun,NoWind,,4,8.5,0.0,0.0,8.5,10.5,0.0,14.5,10.5,0.0,14.5,0.0,0.0;
BuildingSurface:Detailed,Office.0.3.Ceiling,Ceiling,FloorCeiling,Office.0.3,Adiabatic,,NoSun,NoWind,,4,8.5,0.0,3.25,14.5,0.0,3.25,14.5,10.5,3.25,8.5,10.5,3.25;
BuildingSurface:Detailed,Office.0.3.External.Wall.3.East,Wall,ExternalWall,Office.0.3,Outdoors,,SunExposed,WindExposed,,4,14.5,0.0,0.0,14.5,10.5,0.0,14.5,10.5,3.25,14.5,0.0,3.25;
FenestrationSurface:Detailed,Office.0.3.External.Wall.3.East.Window.0,Window,Glazing,Office.0.3.External.Wall.3.East,,,,,4,14.5,8.95,0.6,14.5,9.95,0.6,14.5,9.95,2.4,14.5,8.95,2.4;
FenestrationSurface:Detailed,Office.0.3.External.Wall.3.East.Window.1,Window,Glazing,Office.0.3.External.Wall.3.East,,,,,4,14.5,6.35,0.6,14.5,7.35,0.6,14.5,7.35,2.4,14.5,6.35,2.4;
FenestrationSurface:Detailed,Office.0.3.External.Wall.3.East.Window.2,Window,Glazing,Office.0.3.External.Wall.3.East,,,,,4,14.5,3.75,0.6,14.5,4.75,0.6,14.5,4.75,2.4,14.5,3.75,2.4;
FenestrationSurface:Detailed,Office.0.3.External.Wall.3.East.Window.3,Window,Glazing,Office.0.3.External.Wall.3.East,,,,,4,14.5,1.15,0.01,14.5,2.15,0.01,14.5,2.15,2.4,14.5,1.15,2.4;
BuildingSurface:Detailed,Office.0.3.External.Wall.4.South,Wall,ExternalWall,Office.0.3,Outdoors,,SunExposed,WindExposed,,4,8.5,0.0,0.0,14.5,0.0,0.0,14.5,0.0,3.25,8.5,0.0,3.25;
FenestrationSurface:Detailed,Office.0.3.External.Wall.4.South.Window.0,Window,Glazing,Office.0.3.External.Wall.4.South,,,,,4,11.95,0.0,0.6,12.95,0.0,0.6,12.95,0.0,2.4,11.95,0.0,2.4;
FenestrationSurface:Detailed,Office.0.3.External.Wall.4.South.Window.1,Window,Glazing,Office.0.3.External.Wall.4.South,,,,,4,9.35,0.0,0.6,10.35,0.0,0.6,10.35,0.0,2.4,9.35,0.0,2.4;
BuildingSurface:Detailed,Office.0.3.Internal.Wall.2.North,Wall,InternalWall,Office.0.3,Zone,Service.0.0,NoSun,NoWind,,4,14.5,10.5,0.0,12.0,10.5,0.0,12.0,10.5,3.25,14.5,10.5,3.25;
BuildingSurface:Detailed,Office.0.3.Internal.Wall.1.North,Wall,InternalWall,Office.0.3,Zone,Toilet.0.0,NoSun,NoWind,,4,12.0,10.5,0.0,8.5,10.5,0.0,8.5,10.5,3.25,12.0,10.5,3.25;
BuildingSurface:Detailed,Office.0.3.Internal.Wall.0.West,Wall,InternalWall,Office.0.3,Zone,Corridor.0.0,NoSun,NoWind,,4,8.5,10.5,0.0,8.5,0.0,0.0,8.5,0.0,3.25,8.5,10.5,3.25;
Zone,Toilet.0.0;
BuildingSurface:Detailed,Toilet.0.0.Ground.Floor,Floor,GroundFloor,Toilet.0.0,Ground,,NoSun,NoWind,,4,8.5,10.5,0.0,8.5,15.75,0.0,12.0,15.75,0.0,12.0,10.5,0.0;
BuildingSurface:Detailed,Toilet.0.0.Ceiling,Ceiling,FloorCeiling,Toilet.0.0,Adiabatic,,NoSun,NoWind,,4,8.5,10.5,3.25,12.0,10.5,3.25,12.0,15.75,3.25,8.5,15.75,3.25;
BuildingSurface:Detailed,Toilet.0.0.Internal.Wall.0.West,Wall,InternalWall,Toilet.0.0,Zone,Corridor.0.0,NoSun,NoWind,,4,8.5,15.75,0.0,8.5,10.5,0.0,8.5,10.5,3.25,8.5,15.75,3.25;
BuildingSurface:Detailed,Toilet.0.0.Internal.Wall.1.East,Wall,InternalWall,Toilet.0.0,Zone,Service.0.0,NoSun,NoWind,,4,12.0,10.5,0.0,12.0,15.75,0.0,12.0,15.75,3.25,12.0,10.5,3.25;
Zone,Stairs.0.0;
BuildingSurface:Detailed,Stairs.0.0.Ground.Floor,Floor,GroundFloor,Stairs.0.0,Ground,,NoSun,NoWind,,4,0.0,12.75,0.0,0.0,15.75,0.0,6.0,15.75,0.0,6.0,12.75,0.0;
BuildingSurface:Detailed,Stairs.0.0.Ceiling,Ceiling,FloorCeiling,Stairs.0.0,Adiabatic,,NoSun,NoWind,,4,0.0,12.75,3.25,6.0,12.75,3.25,6.0,15.75,3.25,0.0,15.75,3.25;
BuildingSurface:Detailed,Stairs.0.0.External.Wall.0.West,Wall,ExternalWall,Stairs.0.0,Outdoors,,SunExposed,WindExposed,,4,0.0,15.75,0.0,0.0,12.75,0.0,0.0,12.75,3.25,0.0,15.75,3.25;
FenestrationSurface:Detailed,Stairs.0.0.External.Wall.0.West.Window.0,Window,Glazing,Stairs.0.0.External.Wall.0.West,,,,,4,0.0,15.15,0.6,0.0,14.15,0.6,0.0,14.15,2.4,0.0,15.15,2.4;
BuildingSurface:Detailed,Stairs.0.0.Internal.Wall.0.East,Wall,InternalWall,Stairs.0.0,Zone,Corridor.0.0,NoSun,NoWind,,4,6.0,12.75,0.0,6.0,15.75,0.0,6.0,15.75,3.25,6.0,12.75,3.25;
Zone,Service.0.0;
BuildingSurface:Detailed,Service.0.0.Ground.Floor,Floor,GroundFloor,Service.0.0,Ground,,NoSun,NoWind,,4,12.0,10.5,0.0,12.0,15.75,0.0,14.5,15.75,0.0,14.5,10.5,0.0;
BuildingSurface:Detailed,Service.0.0.Ceiling,Ceiling,FloorCeiling,Service.0.0,Adiabatic,,NoSun,NoWind,,4,12.0,10.5,3.25,14.5,10.5,3.25,14.5,15.75,3.25,12.0,15.75,3.25;
BuildingSurface:Detailed,Service.0.0.External.Wall.0.East,Wall,ExternalWall,Service.0.0,Outdoors,,SunExposed,WindExposed,,4,14.5,10.5,0.0,14.5,15.75,0.0,14.5,15.75,3.25,14.5,10.5,3.25;
FenestrationSurface:Detailed,Service.0.0.External.Wall.0.East.Window.0,Window,Glazing,Service.0.0.External.Wall.0.East,,,,,4,14.5,11.55,0.01,14.5,12.55,0.01,14.5,12.55,2.4,14.5,11.55,2.4;
FenestrationSurface:Detailed,Service.0.0.External.Wall.0.East.Window.1,Window,Glazing,Service.0.0.External.Wall.0.East,,,,,4,14.5,14.15,0.6,14.5,15.15,0.6,14.5,15.15,2.4,14.5,14.15,2.4;
Zone,Corridor.0.0;
BuildingSurface:Detailed,Corridor.0.0.Ground.Floor,Floor,GroundFloor,Corridor.0.0,Ground,,NoSun,NoWind,,4,6.0,0.0,0.0,6.0,26.7,0.0,8.5,26.7,0.0,8.5,0.0,0.0;
BuildingSurface:Detailed,Corridor.0.0.Ceiling,Ceiling,FloorCeiling,Corridor.0.0,Adiabatic,,NoSun,NoWind,,4,6.0,0.0,3.25,8.5,0.0,3.25,8.5,26.7,3.25,6.0,26.7,3.25;
BuildingSurface:Detailed,Corridor.0.0.External.Wall.0.North,Wall,ExternalWall,Corridor.0.0,Outdoors,,SunExposed,WindExposed,,4,8.5,26.7,0.0,6.0,26.7,0.0,6.0,26.7,3.25,8.5,26.7,3.25;
FenestrationSurface:Detailed,Corridor.0.0.External.Wall.0.North.Window.0,Window,Glazing,Corridor.0.0.External.Wall.0.North,,,,,4,7.75,26.7,0.6,6.75,26.7,0.6,6.75,26.7,2.4,7.75,26.7,2.4;
BuildingSurface:Detailed,Corridor.0.0.External.Wall.1.South,Wall,ExternalWall,Corridor.0.0,Outdoors,,SunExposed,WindExposed,,4,6.0,0.0,0.0,8.5,0.0,0.0,8.5,0.0,3.25,6.0,0.0,3.25;
FenestrationSurface:Detailed,Corridor.0.0.External.Wall.1.South.Window.0,Window,Glazing,Corridor.0.0.External.Wall.1.South,,,,,4,6.75,0.0,0.6,7.75,0.0,0.6,7.75,0.0,2.4,6.75,0.0,2.4;
Material,Insulation.ExternalWall,Smooth,0.18971,0.035,20,1000,0.9,0.7,0.7;
Construction,ExternalWall,Plaster,Insulation.ExternalWall,Brick.Wall,Plaster;
Material,Insulation.FloorCeiling,Smooth,0.08246,0.035,20,1000,0.9,0.7,0.7;
Construction,FloorCeiling,Concrete.Floor,Insulation.FloorCeiling,Screed.Floor;
Material,Insulation.GroundFloor,Smooth,0.1394,0.035,20,1000,0.9,0.7,0.7;
Construction,GroundFloor,PerimeterInsulation,Insulation.GroundFloor,Concrete.Floor,Screed.Floor;
Material,Insulation.Roof,Smooth,0.17853,0.035,20,1000,0.9,0.7,0.7;
Construction,Roof,PerimeterInsulation,Insulation.Roof,Concrete.Roof,Plaster;
Construction,Glazing,Glazing;
Material,Insulation.InternalWall,Smooth,0.06562,0.035,20,1000,0.9,0.7,0.7;
Construction,InternalWall,PlasterBoard,Insulation.InternalWall,PlasterBoard;
Construction,Mass,Mass;
InternalMass,InternalMass.Office.0.0,Mass,Office.0.0,76.5;
InternalMass,InternalMass.Office.0.1,Mass,Office.0.1,65.7;
InternalMass,InternalMass.Office.0.2,Mass,Office.0.2,65.7;
InternalMass,InternalMass.Office.0.3,Mass,Office.0.3,63.0;
InternalMass,InternalMass.Toilet.0.0,Mass,Toilet.0.0,18.375;
InternalMass,InternalMass.Stairs.0.0,Mass,Stairs.0.0,18.0;
InternalMass,InternalMass.Service.0.0,Mass,Service.0.0,13.125;
InternalMass,InternalMass.Corridor.0.0,Mass,Corridor.0.0,66.75;
People,People.Office,Office,Office.People,Area/Person,,,20,0.1,,Office.Activity,3.82e-08,,ZoneAveraged,,Always1,DynamicClothingModelASHRAE55,,,Always0.1,Fanger;
Lights,Lights.Office,Office,Office.Lights,Watts/area,,6,,,0.1,0.18,;
ElectricEquipment,People.Office,Office,Office.ElectricEquipment,Watts/area,,10,,,0.1,;
ZoneInfiltration:DesignFlowRate,Infiltration for Office,Office,Always1,AirChanges/Hour,,,,0.37328,0.606,0.03636,0.1177165,;
ZoneVentilation:DesignFlowRate,Default Ventilation for Office,Office,Office.People,Flow/Person,0,0,0.00944,,Balanced,1,1,1,0,0,0,-100,,100,,1;
ZoneVentilation:DesignFlowRate,Natural Ventilation for Office,Office,Office.People,AirChanges/Hour,0,0,0,2,Natural,0,0.1,1,0,0,0,23,,24.9,,1;
HVACTemplate:Zone:WaterToAirHeatPump,Office.0.0,Office,autosize,autosize,,1.2,1.2,,,,,,,DrawThrough,0.7,75,0.9,Coil:Cooling:WaterToAirHeatPump:EquationFit,autosize,autosize,3.2,Coil:Heating:WaterToAirHeatPump:EquationFit,autosize,2.8,,autosize,2.5,60,0.01,60,,Electric,SupplyAirTemperature,12.5,,SupplyAirTemperature,50,,,,;
HVACTemplate:Zone:WaterToAirHeatPump,Office.0.1,Office,autosize,autosize,,1.2,1.2,,,,,,,DrawThrough,0.7,75,0.9,Coil:Cooling:WaterToAirHeatPump:EquationFit,autosize,autosize,3.2,Coil:Heating:WaterToAirHeatPump:EquationFit,autosize,2.8,,autosize,2.5,60,0.01,60,,Electric,SupplyAirTemperature,12.5,,SupplyAirTemperature,50,,,,;
HVACTemplate:Zone:WaterToAirHeatPump,Office.0.2,Office,autosize,autosize,,1.2,1.2,,,,,,,DrawThrough,0.7,75,0.9,Coil:Cooling:WaterToAirHeatPump:EquationFit,autosize,autosize,3.2,Coil:Heating:WaterToAirHeatPump:EquationFit,autosize,2.8,,autosize,2.5,60,0.01,60,,Electric,SupplyAirTemperature,12.5,,SupplyAirTemperature,50,,,,;
HVACTemplate:Zone:WaterToAirHeatPump,Office.0.3,Office,autosize,autosize,,1.2,1.2,,,,,,,DrawThrough,0.7,75,0.9,Coil:Cooling:WaterToAirHeatPump:EquationFit,autosize,autosize,3.2,Coil:Heating:WaterToAirHeatPump:EquationFit,autosize,2.8,,autosize,2.5,60,0.01,60,,Electric,SupplyAirTemperature,12.5,,SupplyAirTemperature,50,,,,;
HVACTemplate:Zone:WaterToAirHeatPump,Toilet.0.0,Office,autosize,autosize,,1.2,1.2,,,,,,,DrawThrough,0.7,75,0.9,Coil:Cooling:WaterToAirHeatPump:EquationFit,autosize,autosize,3.2,Coil:Heating:WaterToAirHeatPump:EquationFit,autosize,2.8,,autosize,2.5,60,0.01,60,,Electric,SupplyAirTemperature,12.5,,SupplyAirTemperature,50,,,,;
HVACTemplate:Zone:WaterToAirHeatPump,Stairs.0.0,Office,autosize,autosize,,1.2,1.2,,,,,,,DrawThrough,0.7,75,0.9,Coil:Cooling:WaterToAirHeatPump:EquationFit,autosize,autosize,3.2,Coil:Heating:WaterToAirHeatPump:EquationFit,autosize,2.8,,autosize,2.5,60,0.01,60,,Electric,SupplyAirTemperature,12.5,,SupplyAirTemperature,50,,,,;
HVACTemplate:Zone:WaterToAirHeatPump,Service.0.0,Office,autosize,autosize,,1.2,1.2,,,,,,,DrawThrough,0.7,75,0.9,Coil:Cooling:WaterToAirHeatPump:EquationFit,autosize,autosize,3.2,Coil:Heating:WaterToAirHeatPump:EquationFit,autosize,2.8,,autosize,2.5,60,0.01,60,,Electric,SupplyAirTemperature,12.5,,SupplyAirTemperature,50,,,,;
HVACTemplate:Zone:WaterToAirHeatPump,Corridor.0.0,Office,autosize,autosize,,1.2,1.2,,,,,,,DrawThrough,0.7,75,0.9,Coil:Cooling:WaterToAirHeatPump:EquationFit,autosize,autosize,3.2,Coil:Heating:WaterToAirHeatPump:EquationFit,autosize,2.8,,autosize,2.5,60,0.01,60,,Electric,SupplyAirTemperature,12.5,,SupplyAirTemperature,50,,,,;
