Version,9.2.0;

HVACTemplate:Plant:MixedWaterLoop,OnlyWaterLoop,,Intermittent,Default,,,34,,20,ConstantFlow,179352,SinglePump,Yes,Yes,Water,6,SequentialLoad;