Construction,u-value:Window,Window;
Construction,u-value:FloorGround,PerimeterInsulation,Insulation.u-value:FloorGround,Concrete.Floor,Screed.Floor;
Construction,u-value:WallExternal,Plaster,Insulation.u-value:WallExternal,Brick.Wall,Plaster;
Construction,u-value:Roof,PerimeterInsulation,Insulation.u-value:Roof,Concrete.Roof,Plaster;
Version,9.2.0;
Building,Tausendpfund,0.0,,0.04,0.4,FullExterior,25,6;
RunPeriod,RunPeriod,1,1,,12,31,,,No,No,No,Yes,Yes,No;
Timestep,6;
ConvergenceLimits,0,20,2,8;
GlobalGeometryRules,UpperLeftCorner,Counterclockwise,Relative,Relative,Relative;
Material,Brick.Wall,Smooth,0.18,2.3,2300,1100,0.9,0.7,0.7;
Material,Concrete.Floor,Smooth,0.2,2.3,2300,800,0.9,0.7,0.7;
Material,Concrete.Roof,Smooth,0.25,2.3,2300,800,0.9,0.7,0.7;
Material,Mass,Smooth,0.12,2.3,500,1000,0.8,0.8,0.7;
Material,Insulation,Smooth,0.18,0.035,20,1000,0.9,0.7,0.7;
Material,PerimeterInsulation,Smooth,0.05,0.035,20,1000,0.9,0.7,0.7;
Material,Plaster,Smooth,0.02,0.7,1400,1000,0.9,0.7,0.7;
Material,PlasterBoard,Rough,0.05,0.16,800,800,0.9,0.6,0.6;
Material,Screed.Floor,Smooth,0.08,1.4,2000,1000,0.9,0.7,0.7;
WindowMaterial:SimpleGlazingSystem,Window,0.87,0.35,0.1;
WindowMaterial:Shade,RollShade,0.3,0.5,0.3,0.5,0.9,0.05,0.003,0.1,0.05,0,0.5,0.5,0,;
Construction,WallExternal,Plaster,Insulation,Brick.Wall,Plaster;
Construction,WallInternal,PlasterBoard,Insulation,PlasterBoard;
Construction,FloorGround,PerimeterInsulation,Insulation,Concrete.Floor,Screed.Floor;
Construction,Ceiling,Concrete.Floor,Insulation,Screed.Floor;
Construction,Roof,PerimeterInsulation,Insulation,Concrete.Roof,Plaster;
Construction,Window,Window;
Construction,Mass,Mass;
Schedule:Compact,Office.HeatingSetPoint,,Through: 12/31,For: WeekDays SummerDesignDay WinterDesignDay CustomDay1 CustomDay2,Until: 6:00,15,Until: 18:00,20,Until: 24:00,15,For: WeekendsHoliday,Until: 24:00,15;
Schedule:Compact,Office.CoolingSetPoint,,Through: 12/31,For: WeekDays SummerDesignDay WinterDesignDay CustomDay1 CustomDay2,Until: 6:00,30,Until: 18:00,26,Until: 24:00,30,For: WeekendsHoliday,Until: 24:00,30;
Schedule:Compact,Office.ElectricEquipment,,Through: 12/31,For: WeekDays SummerDesignDay WinterDesignDay CustomDay1 CustomDay2,Until: 7:00,0.1,Until: 18:00,1,Until: 24:00,0.1,For: WeekendsHoliday,Until: 24:00,0.1;
Schedule:Compact,Office.Lights,,Through: 12/31,For: WeekDays SummerDesignDay WinterDesignDay CustomDay1 CustomDay2,Until: 7:00,0.1,Until: 18:00,1,Until: 24:00,0.1,For: WeekendsHoliday,Until: 24:00,0.1;
Schedule:Compact,Office.People,,Through: 12/31,For: WeekDays SummerDesignDay WinterDesignDay CustomDay1 CustomDay2,Until: 7:00,0,Until: 18:00,1,Until: 24:00,0,For: WeekendsHoliday,Until: 24:00,0;
Schedule:Compact,Office.Ventilation,,Through: 12/31,For: WeekDays SummerDesignDay WinterDesignDay CustomDay1 CustomDay2,Until: 7:00,0,Until: 18:00,1,Until: 24:00,0,For: WeekendsHoliday,Until: 24:00,0;
Schedule:Compact,Office.Activity,,Through: 12/31,For: AllDays,Until: 24:00,125;
Schedule:Compact,Always1,,Through: 12/31,For: AllDays,Until: 24:00,1;
Schedule:Compact,Always0.1,,Through: 12/31,For: AllDays,Until: 24:00,0.1;
SimulationControl,Yes,Yes,Yes,No,Yes;
Site:GroundTemperature:BuildingSurface,6.17,5.07,5.33,6.27,9.35,12.12,14.32,15.48,15.2,13.62,11.08,8.41;
Site:Location,MUNICH_DEU,48.13,11.7,1,529;
SizingPeriod:WeatherFileDays,Summer including Extreme Summer days,7,18,7,25,SummerDesignDay,Yes,Yes;
SizingPeriod:WeatherFileDays,Winter including Extreme Winter days,1,25,2,1,WinterDesignDay,Yes,Yes;
HVACTemplate:Thermostat,Office,Office.HeatingSetPoint,,Office.CoolingSetPoint,;
HVACTemplate:Plant:MixedWaterLoop,OnlyWaterLoop,,Intermittent,Default,,,34,,20,ConstantFlow,179352,SinglePump,Yes,Yes,Water,6,SequentialLoad;
HVACTemplate:Plant:Boiler,Boiler,HotWaterBoiler,autosize,0.95,Electricity,1,1.2,0.1,1.1,0.9,99;
HVACTemplate:Plant:Tower,MainTower,SingleSpeed,autosize,autosize,autosize,autosize,autosize,1,1.2;
OutputControl:Table:Style,XMLandHTML;
Output:Diagnostics,DisplayAdvancedReportVariables;
Output:Diagnostics,DisplayExtraWarnings;
Output:Surfaces:Drawing,dxf;
Output:Variable,*,Zone Air System Sensible Heating Rate,Monthly;
Output:Variable,*,Zone Air System Sensible Cooling Rate,Monthly;
Output:Variable,*,Zone Lights Electric Energy,Monthly;
Output:Variable,*,Zone Water to Air Heat Pump Electric Energy,Monthly;
Output:Variable,*,Boiler Electric Energy,Monthly;
Output:Variable,*,Chiller Electric Energy,Monthly;
Output:Variable,*,Cooling Tower Fan Electric Energy,Monthly;
ZoneList,Office,Office-0-0,Office-0-1,Office-0-2,Office-0-3,Stairs-0-0,Toilet-0-0,Corridor-0-0,Service-0-0;
Zone,Office-0-0;
BuildingSurface:Detailed,Office-0-0.0.FloorGround,Floor,u-value:FloorGround,Office-0-0,Ground,,NoSun,NoWind,,4,0.0,0.0,0.0,0.0,12.75,0.0,6.0,12.75,0.0,6.0,0.0,0.0;
BuildingSurface:Detailed,Office-0-0.1.Ceiling,Ceiling,Ceiling,Office-0-0,Adiabatic,,NoSun,NoWind,,4,0.0,0.0,3.25,6.0,0.0,3.25,6.0,12.75,3.25,0.0,12.75,3.25;
BuildingSurface:Detailed,Office-0-0.0.West.WallExternal,Wall,u-value:WallExternal,Office-0-0,Outdoors,,SunExposed,WindExposed,,4,0.0,12.75,0.0,0.0,0.0,0.0,0.0,0.0,3.25,0.0,12.75,3.25;
FenestrationSurface:Detailed,Office-0-0.0.West.WallExternal.0.Window,Window,u-value:Window,Office-0-0.0.West.WallExternal,,,,,4,0.0,12.55,0.6,0.0,11.55,0.6,0.0,11.55,2.4,0.0,12.55,2.4;
FenestrationSurface:Detailed,Office-0-0.0.West.WallExternal.1.Window,Window,u-value:Window,Office-0-0.0.West.WallExternal,,,,,4,0.0,9.95,0.01,0.0,6.35,0.01,0.0,6.35,2.4,0.0,9.95,2.4;
FenestrationSurface:Detailed,Office-0-0.0.West.WallExternal.2.Window,Window,u-value:Window,Office-0-0.0.West.WallExternal,,,,,4,0.0,4.75,0.6,0.0,3.75,0.6,0.0,3.75,2.4,0.0,4.75,2.4;
FenestrationSurface:Detailed,Office-0-0.0.West.WallExternal.3.Window,Window,u-value:Window,Office-0-0.0.West.WallExternal,,,,,4,0.0,2.15,0.01,0.0,1.15,0.01,0.0,1.15,2.4,0.0,2.15,2.4;
BuildingSurface:Detailed,Office-0-0.1.South.WallExternal,Wall,u-value:WallExternal,Office-0-0,Outdoors,,SunExposed,WindExposed,,4,0.0,0.0,0.0,6.0,0.0,0.0,6.0,0.0,3.25,0.0,0.0,3.25;
FenestrationSurface:Detailed,Office-0-0.1.South.WallExternal.0.Window,Window,u-value:Window,Office-0-0.1.South.WallExternal,,,,,4,1.55,0.0,0.6,2.55,0.0,0.6,2.55,0.0,2.4,1.55,0.0,2.4;
FenestrationSurface:Detailed,Office-0-0.1.South.WallExternal.1.Window,Window,u-value:Window,Office-0-0.1.South.WallExternal,,,,,4,4.15,0.0,0.6,5.15,0.0,0.6,5.15,0.0,2.4,4.15,0.0,2.4;
BuildingSurface:Detailed,Office-0-0.2.East.InternalWall,Wall,WallInternal,Office-0-0,Zone,Corridor-0-0,NoSun,NoWind,,4,6.0,0.0,0.0,6.0,12.75,0.0,6.0,12.75,3.25,6.0,0.0,3.25;
BuildingSurface:Detailed,Office-0-0.3.North.InternalWall,Wall,WallInternal,Office-0-0,Zone,Stairs-0-0,NoSun,NoWind,,4,6.0,12.75,0.0,0.0,12.75,0.0,0.0,12.75,3.25,6.0,12.75,3.25;
Zone,Office-0-1;
BuildingSurface:Detailed,Office-0-1.FloorGround,Floor,u-value:FloorGround,Office-0-1,Ground,,NoSun,NoWind,,4,0.0,15.75,0.0,0.0,26.7,0.0,6.0,26.7,0.0,6.0,15.75,0.0;
BuildingSurface:Detailed,Office-0-1.Ceiling,Ceiling,Ceiling,Office-0-1,Adiabatic,,NoSun,NoWind,,4,0.0,15.75,3.25,6.0,15.75,3.25,6.0,26.7,3.25,0.0,26.7,3.25;
BuildingSurface:Detailed,Office-0-1.0.West.WallExternal,Wall,u-value:WallExternal,Office-0-1,Outdoors,,SunExposed,WindExposed,,4,0.0,26.7,0.0,0.0,15.75,0.0,0.0,15.75,3.25,0.0,26.7,3.25;
FenestrationSurface:Detailed,Office-0-1.0.West.WallExternal.0.Window,Window,u-value:Window,Office-0-1.0.West.WallExternal,,,,,4,0.0,25.55,0.6,0.0,24.55,0.6,0.0,24.55,2.4,0.0,25.55,2.4;
FenestrationSurface:Detailed,Office-0-1.0.West.WallExternal.1.Window,Window,u-value:Window,Office-0-1.0.West.WallExternal,,,,,4,0.0,22.95,0.6,0.0,21.95,0.6,0.0,21.95,2.4,0.0,22.95,2.4;
FenestrationSurface:Detailed,Office-0-1.0.West.WallExternal.2.Window,Window,u-value:Window,Office-0-1.0.West.WallExternal,,,,,4,0.0,20.35,0.6,0.0,19.35,0.6,0.0,19.35,2.4,0.0,20.35,2.4;
FenestrationSurface:Detailed,Office-0-1.0.West.WallExternal.3.Window,Window,u-value:Window,Office-0-1.0.West.WallExternal,,,,,4,0.0,17.75,0.01,0.0,16.75,0.01,0.0,16.75,2.4,0.0,17.75,2.4;
BuildingSurface:Detailed,Office-0-1.WallExternal.3.North,Wall,u-value:WallExternal,Office-0-1,Outdoors,,SunExposed,WindExposed,,4,6.0,26.7,0.0,0.0,26.7,0.0,0.0,26.7,3.25,6.0,26.7,3.25;
FenestrationSurface:Detailed,Office-0-1.WallExternal.3.North.0.Window,Window,u-value:Window,Office-0-1.WallExternal.3.North,,,,,4,5.15,26.7,0.6,4.15,26.7,0.6,4.15,26.7,2.4,5.15,26.7,2.4;
FenestrationSurface:Detailed,Office-0-1.WallExternal.3.North.1.Window,Window,u-value:Window,Office-0-1.WallExternal.3.North,,,,,4,2.55,26.7,0.6,1.55,26.7,0.6,1.55,26.7,2.4,2.55,26.7,2.4;
BuildingSurface:Detailed,Office-0-1.WallInternal.1.South,Wall,WallInternal,Office-0-1,Zone,Stairs-0-0,NoSun,NoWind,,4,0.0,15.75,0.0,6.0,15.75,0.0,6.0,15.75,3.25,0.0,15.75,3.25;
BuildingSurface:Detailed,Office-0-1.WallInternal.2.East,Wall,WallInternal,Office-0-1,Zone,Corridor-0-0,NoSun,NoWind,,4,6.0,15.75,0.0,6.0,26.7,0.0,6.0,26.7,3.25,6.0,15.75,3.25;
Zone,Office-0-2;
BuildingSurface:Detailed,Office-0-2.FloorGround,Floor,u-value:FloorGround,Office-0-2,Ground,,NoSun,NoWind,,4,8.5,15.75,0.0,8.5,26.7,0.0,14.5,26.7,0.0,14.5,15.75,0.0;
BuildingSurface:Detailed,Office-0-2.Ceiling,Ceiling,Ceiling,Office-0-2,Adiabatic,,NoSun,NoWind,,4,8.5,15.75,3.25,14.5,15.75,3.25,14.5,26.7,3.25,8.5,26.7,3.25;
BuildingSurface:Detailed,Office-0-2.WallExternal.2.East,Wall,u-value:WallExternal,Office-0-2,Outdoors,,SunExposed,WindExposed,,4,14.5,15.75,0.0,14.5,26.7,0.0,14.5,26.7,3.25,14.5,15.75,3.25;
FenestrationSurface:Detailed,Office-0-2.WallExternal.2.East.0.Window,Window,u-value:Window,Office-0-2.WallExternal.2.East,,,,,4,14.5,24.55,0.6,14.5,25.55,0.6,14.5,25.55,2.4,14.5,24.55,2.4;
FenestrationSurface:Detailed,Office-0-2.WallExternal.2.East.1.Window,Window,u-value:Window,Office-0-2.WallExternal.2.East,,,,,4,14.5,21.95,0.6,14.5,22.95,0.6,14.5,22.95,2.4,14.5,21.95,2.4;
FenestrationSurface:Detailed,Office-0-2.WallExternal.2.East.2.Window,Window,u-value:Window,Office-0-2.WallExternal.2.East,,,,,4,14.5,19.35,0.6,14.5,20.35,0.6,14.5,20.35,2.4,14.5,19.35,2.4;
FenestrationSurface:Detailed,Office-0-2.WallExternal.2.East.3.Window,Window,u-value:Window,Office-0-2.WallExternal.2.East,,,,,4,14.5,16.75,0.01,14.5,17.75,0.01,14.5,17.75,2.4,14.5,16.75,2.4;
BuildingSurface:Detailed,Office-0-2.WallExternal.1.North,Wall,u-value:WallExternal,Office-0-2,Outdoors,,SunExposed,WindExposed,,4,14.5,26.7,0.0,8.5,26.7,0.0,8.5,26.7,3.25,14.5,26.7,3.25;
FenestrationSurface:Detailed,Office-0-2.WallExternal.1.North.0.Window,Window,u-value:Window,Office-0-2.WallExternal.1.North,,,,,4,12.95,26.7,0.6,11.95,26.7,0.6,11.95,26.7,2.4,12.95,26.7,2.4;
FenestrationSurface:Detailed,Office-0-2.WallExternal.1.North.1.Window,Window,u-value:Window,Office-0-2.WallExternal.1.North,,,,,4,10.35,26.7,0.6,9.35,26.7,0.6,9.35,26.7,2.4,10.35,26.7,2.4;
BuildingSurface:Detailed,Office-0-2.WallInternal.3.South,Wall,WallInternal,Office-0-2,Zone,Service-0-0,NoSun,NoWind,,4,12.0,15.75,0.0,14.5,15.75,0.0,14.5,15.75,3.25,12.0,15.75,3.25;
BuildingSurface:Detailed,Office-0-2.WallInternal.4.South,Wall,WallInternal,Office-0-2,Zone,Toilet-0-0,NoSun,NoWind,,4,8.5,15.75,0.0,12.0,15.75,0.0,12.0,15.75,3.25,8.5,15.75,3.25;
BuildingSurface:Detailed,Office-0-2.WallInternal.0.West,Wall,WallInternal,Office-0-2,Zone,Corridor-0-0,NoSun,NoWind,,4,8.5,26.7,0.0,8.5,15.75,0.0,8.5,15.75,3.25,8.5,26.7,3.25;
Zone,Office-0-3;
BuildingSurface:Detailed,Office-0-3.FloorGround,Floor,u-value:FloorGround,Office-0-3,Ground,,NoSun,NoWind,,4,8.5,0.0,0.0,8.5,10.5,0.0,14.5,10.5,0.0,14.5,0.0,0.0;
BuildingSurface:Detailed,Office-0-3.Ceiling,Ceiling,Ceiling,Office-0-3,Adiabatic,,NoSun,NoWind,,4,8.5,0.0,3.25,14.5,0.0,3.25,14.5,10.5,3.25,8.5,10.5,3.25;
BuildingSurface:Detailed,Office-0-3.WallExternal.3.East,Wall,u-value:WallExternal,Office-0-3,Outdoors,,SunExposed,WindExposed,,4,14.5,0.0,0.0,14.5,10.5,0.0,14.5,10.5,3.25,14.5,0.0,3.25;
FenestrationSurface:Detailed,Office-0-3.WallExternal.3.East.0.Window,Window,u-value:Window,Office-0-3.WallExternal.3.East,,,,,4,14.5,8.95,0.6,14.5,9.95,0.6,14.5,9.95,2.4,14.5,8.95,2.4;
FenestrationSurface:Detailed,Office-0-3.WallExternal.3.East.1.Window,Window,u-value:Window,Office-0-3.WallExternal.3.East,,,,,4,14.5,6.35,0.6,14.5,7.35,0.6,14.5,7.35,2.4,14.5,6.35,2.4;
FenestrationSurface:Detailed,Office-0-3.WallExternal.3.East.2.Window,Window,u-value:Window,Office-0-3.WallExternal.3.East,,,,,4,14.5,3.75,0.6,14.5,4.75,0.6,14.5,4.75,2.4,14.5,3.75,2.4;
FenestrationSurface:Detailed,Office-0-3.WallExternal.3.East.3.Window,Window,u-value:Window,Office-0-3.WallExternal.3.East,,,,,4,14.5,1.15,0.01,14.5,2.15,0.01,14.5,2.15,2.4,14.5,1.15,2.4;
BuildingSurface:Detailed,Office-0-3.WallExternal.4.South,Wall,u-value:WallExternal,Office-0-3,Outdoors,,SunExposed,WindExposed,,4,8.5,0.0,0.0,14.5,0.0,0.0,14.5,0.0,3.25,8.5,0.0,3.25;
FenestrationSurface:Detailed,Office-0-3.WallExternal.4.South.0.Window,Window,u-value:Window,Office-0-3.WallExternal.4.South,,,,,4,11.95,0.0,0.6,12.95,0.0,0.6,12.95,0.0,2.4,11.95,0.0,2.4;
FenestrationSurface:Detailed,Office-0-3.WallExternal.4.South.1.Window,Window,u-value:Window,Office-0-3.WallExternal.4.South,,,,,4,9.35,0.0,0.6,10.35,0.0,0.6,10.35,0.0,2.4,9.35,0.0,2.4;
BuildingSurface:Detailed,Office-0-3.WallInternal.2.North,Wall,WallInternal,Office-0-3,Zone,Service-0-0,NoSun,NoWind,,4,14.5,10.5,0.0,12.0,10.5,0.0,12.0,10.5,3.25,14.5,10.5,3.25;
BuildingSurface:Detailed,Office-0-3.WallInternal.1.North,Wall,WallInternal,Office-0-3,Zone,Toilet-0-0,NoSun,NoWind,,4,12.0,10.5,0.0,8.5,10.5,0.0,8.5,10.5,3.25,12.0,10.5,3.25;
BuildingSurface:Detailed,Office-0-3.WallInternal.0.West,Wall,WallInternal,Office-0-3,Zone,Corridor-0-0,NoSun,NoWind,,4,8.5,10.5,0.0,8.5,0.0,0.0,8.5,0.0,3.25,8.5,10.5,3.25;
Zone,Toilet-0-0;
BuildingSurface:Detailed,Toilet-0-0.FloorGround,Floor,u-value:FloorGround,Toilet-0-0,Ground,,NoSun,NoWind,,4,8.5,10.5,0.0,8.5,15.75,0.0,12.0,15.75,0.0,12.0,10.5,0.0;
BuildingSurface:Detailed,Toilet-0-0.Ceiling,Ceiling,Ceiling,Toilet-0-0,Adiabatic,,NoSun,NoWind,,4,8.5,10.5,3.25,12.0,10.5,3.25,12.0,15.75,3.25,8.5,15.75,3.25;
BuildingSurface:Detailed,Toilet-0-0.WallInternal.0.West,Wall,WallInternal,Toilet-0-0,Zone,Corridor-0-0,NoSun,NoWind,,4,8.5,15.75,0.0,8.5,10.5,0.0,8.5,10.5,3.25,8.5,15.75,3.25;
BuildingSurface:Detailed,Toilet-0-0.WallInternal.1.East,Wall,WallInternal,Toilet-0-0,Zone,Service-0-0,NoSun,NoWind,,4,12.0,10.5,0.0,12.0,15.75,0.0,12.0,15.75,3.25,12.0,10.5,3.25;
Zone,Stairs-0-0;
BuildingSurface:Detailed,Stairs-0-0.FloorGround,Floor,u-value:FloorGround,Stairs-0-0,Ground,,NoSun,NoWind,,4,0.0,12.75,0.0,0.0,15.75,0.0,6.0,15.75,0.0,6.0,12.75,0.0;
BuildingSurface:Detailed,Stairs-0-0.Ceiling,Ceiling,Ceiling,Stairs-0-0,Adiabatic,,NoSun,NoWind,,4,0.0,12.75,3.25,6.0,12.75,3.25,6.0,15.75,3.25,0.0,15.75,3.25;
BuildingSurface:Detailed,Stairs-0-0.0.West.WallExternal,Wall,u-value:WallExternal,Stairs-0-0,Outdoors,,SunExposed,WindExposed,,4,0.0,15.75,0.0,0.0,12.75,0.0,0.0,12.75,3.25,0.0,15.75,3.25;
FenestrationSurface:Detailed,Stairs-0-0.0.West.WallExternal.0.Window,Window,u-value:Window,Stairs-0-0.0.West.WallExternal,,,,,4,0.0,15.15,0.6,0.0,14.15,0.6,0.0,14.15,2.4,0.0,15.15,2.4;
BuildingSurface:Detailed,Stairs-0-0.0.East.WallInternal,Wall,WallInternal,Stairs-0-0,Zone,Corridor-0-0,NoSun,NoWind,,4,6.0,12.75,0.0,6.0,15.75,0.0,6.0,15.75,3.25,6.0,12.75,3.25;
Zone,Service-0-0;
BuildingSurface:Detailed,Service-0-0.FloorGround,Floor,u-value:FloorGround,Service-0-0,Ground,,NoSun,NoWind,,4,12.0,10.5,0.0,12.0,15.75,0.0,14.5,15.75,0.0,14.5,10.5,0.0;
BuildingSurface:Detailed,Service-0-0.Ceiling,Ceiling,Ceiling,Service-0-0,Adiabatic,,NoSun,NoWind,,4,12.0,10.5,3.25,14.5,10.5,3.25,14.5,15.75,3.25,12.0,15.75,3.25;
BuildingSurface:Detailed,Service-0-0.0.East.WallExternal,Wall,u-value:WallExternal,Service-0-0,Outdoors,,SunExposed,WindExposed,,4,14.5,10.5,0.0,14.5,15.75,0.0,14.5,15.75,3.25,14.5,10.5,3.25;
FenestrationSurface:Detailed,Service-0-0.0.East.WallExternal.0.Window,Window,u-value:Window,Service-0-0.0.East.WallExternal,,,,,4,14.5,11.55,0.01,14.5,12.55,0.01,14.5,12.55,2.4,14.5,11.55,2.4;
FenestrationSurface:Detailed,Service-0-0.0.East.WallExternal.1.Window,Window,u-value:Window,Service-0-0.0.East.WallExternal,,,,,4,14.5,14.15,0.6,14.5,15.15,0.6,14.5,15.15,2.4,14.5,14.15,2.4;
Zone,Corridor-0-0;
BuildingSurface:Detailed,Corridor-0-0.FloorGround,Floor,u-value:FloorGround,Corridor-0-0,Ground,,NoSun,NoWind,,4,6.0,0.0,0.0,6.0,26.7,0.0,8.5,26.7,0.0,8.5,0.0,0.0;
BuildingSurface:Detailed,Corridor-0-0.Ceiling,Ceiling,Ceiling,Corridor-0-0,Adiabatic,,NoSun,NoWind,,4,6.0,0.0,3.25,8.5,0.0,3.25,8.5,26.7,3.25,6.0,26.7,3.25;
BuildingSurface:Detailed,Corridor-0-0.0.North.WallExternal,Wall,u-value:WallExternal,Corridor-0-0,Outdoors,,SunExposed,WindExposed,,4,8.5,26.7,0.0,6.0,26.7,0.0,6.0,26.7,3.25,8.5,26.7,3.25;
FenestrationSurface:Detailed,Corridor-0-0.0.North.WallExternal.0.Window,Window,u-value:Window,Corridor-0-0.0.North.WallExternal,,,,,4,7.75,26.7,0.6,6.75,26.7,0.6,6.75,26.7,2.4,7.75,26.7,2.4;
BuildingSurface:Detailed,Corridor-0-0.1.South.WallExternal,Wall,u-value:WallExternal,Corridor-0-0,Outdoors,,SunExposed,WindExposed,,4,6.0,0.0,0.0,8.5,0.0,0.0,8.5,0.0,3.25,6.0,0.0,3.25;
FenestrationSurface:Detailed,Corridor-0-0.1.South.WallExternal.0.Window,Window,u-value:Window,Corridor-0-0.1.South.WallExternal,,,,,4,6.75,0.0,0.6,7.75,0.0,0.6,7.75,0.0,2.4,6.75,0.0,2.4;
InternalMass,InternalMass.Office-0-0,Mass,Office-0-0,38.25;
InternalMass,InternalMass.Office-0-1,Mass,Office-0-1,32.85;
InternalMass,InternalMass.Office-0-2,Mass,Office-0-2,32.85;
InternalMass,InternalMass.Office-0-3,Mass,Office-0-3,31.5;
InternalMass,InternalMass.Toilet-0-0,Mass,Toilet-0-0,9.1875;
InternalMass,InternalMass.Stairs-0-0,Mass,Stairs-0-0,9.0;
InternalMass,InternalMass.Service-0-0,Mass,Service-0-0,6.5625;
InternalMass,InternalMass.Corridor-0-0,Mass,Corridor-0-0,33.375;
People,People.Office,Office,Office.People,Area/Person,,,20,0.1,,Office.Activity,3.82e-08,,ZoneAveraged,,Always1,DynamicClothingModelASHRAE55,,,Always0.1,Fanger;
Lights,Lights.Office,Office,Office.Lights,Watts/area,,6,,,0.1,0.18,;
ElectricEquipment,People.Office,Office,Office.ElectricEquipment,Watts/area,,10,,,0.1,;
ZoneInfiltration:DesignFlowRate,Infiltration for Office,Office,Always1,AirChanges/Hour,,,,0.37328,0.606,0.03636,0.1177165,;
ZoneVentilation:DesignFlowRate,Default Ventilation for Office,Office,Office.People,Flow/Person,0,0,0.00944,,Balanced,1,1,1,0,0,0,-100,,100,,1;
ZoneVentilation:DesignFlowRate,Natural Ventilation for Office,Office,Office.People,AirChanges/Hour,0,0,0,2,Natural,0,0.1,1,0,0,0,23,,24.9,,1;
HVACTemplate:Zone:WaterToAirHeatPump,Office-0-0,Office,autosize,autosize,,1.2,1.2,,,,,,,DrawThrough,0.7,75,0.9,Coil:Cooling:WaterToAirHeatPump:EquationFit,autosize,autosize,3.2,Coil:Heating:WaterToAirHeatPump:EquationFit,autosize,2.8,,autosize,2.5,60,0.01,60,,Electric,SupplyAirTemperature,12.5,,SupplyAirTemperature,50,,,,;
HVACTemplate:Zone:WaterToAirHeatPump,Office-0-1,Office,autosize,autosize,,1.2,1.2,,,,,,,DrawThrough,0.7,75,0.9,Coil:Cooling:WaterToAirHeatPump:EquationFit,autosize,autosize,3.2,Coil:Heating:WaterToAirHeatPump:EquationFit,autosize,2.8,,autosize,2.5,60,0.01,60,,Electric,SupplyAirTemperature,12.5,,SupplyAirTemperature,50,,,,;
HVACTemplate:Zone:WaterToAirHeatPump,Office-0-2,Office,autosize,autosize,,1.2,1.2,,,,,,,DrawThrough,0.7,75,0.9,Coil:Cooling:WaterToAirHeatPump:EquationFit,autosize,autosize,3.2,Coil:Heating:WaterToAirHeatPump:EquationFit,autosize,2.8,,autosize,2.5,60,0.01,60,,Electric,SupplyAirTemperature,12.5,,SupplyAirTemperature,50,,,,;
HVACTemplate:Zone:WaterToAirHeatPump,Office-0-3,Office,autosize,autosize,,1.2,1.2,,,,,,,DrawThrough,0.7,75,0.9,Coil:Cooling:WaterToAirHeatPump:EquationFit,autosize,autosize,3.2,Coil:Heating:WaterToAirHeatPump:EquationFit,autosize,2.8,,autosize,2.5,60,0.01,60,,Electric,SupplyAirTemperature,12.5,,SupplyAirTemperature,50,,,,;
HVACTemplate:Zone:WaterToAirHeatPump,Toilet-0-0,Office,autosize,autosize,,1.2,1.2,,,,,,,DrawThrough,0.7,75,0.9,Coil:Cooling:WaterToAirHeatPump:EquationFit,autosize,autosize,3.2,Coil:Heating:WaterToAirHeatPump:EquationFit,autosize,2.8,,autosize,2.5,60,0.01,60,,Electric,SupplyAirTemperature,12.5,,SupplyAirTemperature,50,,,,;
HVACTemplate:Zone:WaterToAirHeatPump,Stairs-0-0,Office,autosize,autosize,,1.2,1.2,,,,,,,DrawThrough,0.7,75,0.9,Coil:Cooling:WaterToAirHeatPump:EquationFit,autosize,autosize,3.2,Coil:Heating:WaterToAirHeatPump:EquationFit,autosize,2.8,,autosize,2.5,60,0.01,60,,Electric,SupplyAirTemperature,12.5,,SupplyAirTemperature,50,,,,;
HVACTemplate:Zone:WaterToAirHeatPump,Service-0-0,Office,autosize,autosize,,1.2,1.2,,,,,,,DrawThrough,0.7,75,0.9,Coil:Cooling:WaterToAirHeatPump:EquationFit,autosize,autosize,3.2,Coil:Heating:WaterToAirHeatPump:EquationFit,autosize,2.8,,autosize,2.5,60,0.01,60,,Electric,SupplyAirTemperature,12.5,,SupplyAirTemperature,50,,,,;
HVACTemplate:Zone:WaterToAirHeatPump,Corridor-0-0,Office,autosize,autosize,,1.2,1.2,,,,,,,DrawThrough,0.7,75,0.9,Coil:Cooling:WaterToAirHeatPump:EquationFit,autosize,autosize,3.2,Coil:Heating:WaterToAirHeatPump:EquationFit,autosize,2.8,,autosize,2.5,60,0.01,60,,Electric,SupplyAirTemperature,12.5,,SupplyAirTemperature,50,,,,;
Material,Insulation.u-value:Roof,Smooth,0.17466,0.035,20,1000,0.9,0.7,0.7;
Material,Insulation.u-value:WallExternal,Smooth,0.15968,0.035,20,1000,0.9,0.7,0.7;
Material,Insulation.u-value:FloorGround,Smooth,0.12817,0.035,20,1000,0.9,0.7,0.7;
WindowMaterial:SimpleGlazingSystem,Window.u-value:Window,0.56182,0.56182,0.1;