Construction,u-value:Window,Window;
Construction,u-value:Roof,PerimeterInsulation,Insulation.u-value:Roof,Concrete.Roof,Plaster;
Construction,u-value:FloorGround,PerimeterInsulation,Insulation.u-value:FloorGround,Concrete.Floor,Screed.Floor;
Construction,u-value:WallExternal,Plaster,Insulation.u-value:WallExternal,Brick.Wall,Plaster;
Version,22.2.0;
Building,Tausendpfund,20.0,,0.04,0.4,FullExterior,50,6;
Timestep,6;
ConvergenceLimits,0,20,2,8;
GlobalGeometryRules,UpperLeftCorner,Counterclockwise,Relative,Relative,Relative;
Material,Brick.Wall,Smooth,0.18,2.3,2300,1100,0.9,0.7,0.7;
Material,Concrete.Floor,Smooth,0.2,2.3,2300,800,0.9,0.7,0.7;
Material,Concrete.Roof,Smooth,0.25,2.3,2300,800,0.9,0.7,0.7;
Material,Mass,Smooth,0.12,2.3,500,1000,0.8,0.8,0.7;
Material,Insulation,Smooth,0.18,0.035,20,1000,0.9,0.7,0.7;
Material,PerimeterInsulation,Smooth,0.05,0.035,20,1000,0.9,0.7,0.7;
Material,Plaster,Smooth,0.02,0.7,1400,1000,0.9,0.7,0.7;
Material,PlasterBoard,Rough,0.05,0.16,800,800,0.9,0.6,0.6;
Material,Screed.Floor,Smooth,0.08,1.4,2000,1000,0.9,0.7,0.7;
WindowMaterial:SimpleGlazingSystem,Window,0.87,0.35,0.1;
WindowMaterial:Shade,RollShade,0.3,0.5,0.3,0.5,0.9,0.05,0.003,0.1,0.05,0,0.5,0.5,0,;
Construction,WallExternal,Plaster,Insulation,Brick.Wall,Plaster;
Construction,WallInternal,PlasterBoard,Insulation,PlasterBoard;
Construction,FloorGround,PerimeterInsulation,Insulation,Concrete.Floor,Screed.Floor;
Construction,FloorInternal,Concrete.Floor,Insulation,Screed.Floor;
Construction,Ceiling,Concrete.Floor,Insulation,Screed.Floor;
Construction,Roof,PerimeterInsulation,Insulation,Concrete.Roof,Plaster;
Construction,Window,Window;
Construction,Mass,Mass;
SimulationControl,Yes,Yes,Yes,No,Yes;
Site:GroundTemperature:BuildingSurface,6.17,5.07,5.33,6.27,9.35,12.12,14.32,15.48,15.2,13.62,11.08,8.41;
Site:Location,REGENSBURG_DEU,49.01,12.1,1,369.6;
SizingPeriod:WeatherFileDays,Extreme Summer days,8,10,8,16,SummerDesignDay,Yes,Yes;
SizingPeriod:WeatherFileDays,Typical Summer days,7,13,7,19,SummerDesignDay,Yes,Yes;
SizingPeriod:WeatherFileDays,Extreme Winter days,1,6,1,12,WinterDesignDay,Yes,Yes;
SizingPeriod:WeatherFileDays,Typical Winter days,12,8,12,14,WinterDesignDay,Yes,Yes;
SizingPeriod:WeatherFileDays,Autumn days,10,20,10,26,CustomDay1,Yes,Yes;
SizingPeriod:WeatherFileDays,Spring days,4,5,4,11,CustomDay2,Yes,Yes;
OutputControl:Table:Style,XMLandHTML;
Output:Diagnostics,DisplayAdvancedReportVariables, DisplayExtraWarnings;
Output:Surfaces:Drawing,dxf;
Output:Variable,*,Zone Air System Sensible Heating Rate,RunPeriod;
Output:Variable,*,Zone Air System Sensible Cooling Rate,RunPeriod;
Output:Variable,*,Zone Lights Electricity Energy,RunPeriod;
Output:Variable,*,Zone Water to Air Heat Pump Electricity Energy,RunPeriod;
Output:Variable,*,Boiler Electricity Energy,RunPeriod;
Output:Variable,*,Chiller Electricity Energy,RunPeriod;
Output:Variable,*,Cooling Tower Fan Electricity Energy,RunPeriod;
ZoneList,Office,Office-0-0,Office-0-1,Office-0-2,Office-0-3,Office-1-0,Office-1-1,Office-1-2,Office-1-3,Office-2-0,Office-2-1,Office-2-2,Office-2-3,Office-2-4;
ZoneList,Toilet,Toilet-0-0,Toilet-1-0,Toilet-2-0;
ZoneList,Stairs,Stairs-0-0,Stairs-1-0,Stairs-2-0;
ZoneList,Corridor,Corridor-0-0,Corridor-1-0,Corridor-2-0;
ZoneList,Service,Service-1-0;
ZoneList,Technic,Technic-0-0,Technic-2-0;
Zone,Office-0-0;
BuildingSurface:Detailed,Office-0-0.0.FloorGround,Floor,u-value:FloorGround,Office-0-0,,Ground,,NoSun,NoWind,,4,0.0,0.0,0.0,0.0,12.75,0.0,6.0,12.75,0.0,6.0,0.0,0.0;
BuildingSurface:Detailed,Office-0-0.1.Ceiling,Ceiling,Ceiling,Office-0-0,,Adiabatic,,NoSun,NoWind,,4,0.0,0.0,3.25,6.0,0.0,3.25,6.0,12.75,3.25,0.0,12.75,3.25;
BuildingSurface:Detailed,Office-0-0.0.West.WallExternal,Wall,u-value:WallExternal,Office-0-0,,Outdoors,,SunExposed,WindExposed,,4,0.0,12.75,0.0,0.0,0.0,0.0,0.0,0.0,3.25,0.0,12.75,3.25;
FenestrationSurface:Detailed,Office-0-0.0.West.WallExternal.0.Window,Window,u-value:Window,Office-0-0.0.West.WallExternal,,,,,4,0.0,12.55,0.6,0.0,11.55,0.6,0.0,11.55,2.4,0.0,12.55,2.4;
FenestrationSurface:Detailed,Office-0-0.0.West.WallExternal.1.Window,Window,u-value:Window,Office-0-0.0.West.WallExternal,,,,,4,0.0,9.95,0.01,0.0,6.35,0.01,0.0,6.35,2.4,0.0,9.95,2.4;
FenestrationSurface:Detailed,Office-0-0.0.West.WallExternal.2.Window,Window,u-value:Window,Office-0-0.0.West.WallExternal,,,,,4,0.0,4.75,0.6,0.0,3.75,0.6,0.0,3.75,2.4,0.0,4.75,2.4;
FenestrationSurface:Detailed,Office-0-0.0.West.WallExternal.3.Window,Window,u-value:Window,Office-0-0.0.West.WallExternal,,,,,4,0.0,2.15,0.01,0.0,1.15,0.01,0.0,1.15,2.4,0.0,2.15,2.4;
BuildingSurface:Detailed,Office-0-0.1.South.WallExternal,Wall,u-value:WallExternal,Office-0-0,,Outdoors,,SunExposed,WindExposed,,4,0.0,0.0,0.0,6.0,0.0,0.0,6.0,0.0,3.25,0.0,0.0,3.25;
FenestrationSurface:Detailed,Office-0-0.1.South.WallExternal.0.Window,Window,u-value:Window,Office-0-0.1.South.WallExternal,,,,,4,1.55,0.0,0.6,2.55,0.0,0.6,2.55,0.0,2.4,1.55,0.0,2.4;
FenestrationSurface:Detailed,Office-0-0.1.South.WallExternal.1.Window,Window,u-value:Window,Office-0-0.1.South.WallExternal,,,,,4,4.15,0.0,0.6,5.15,0.0,0.6,5.15,0.0,2.4,4.15,0.0,2.4;
BuildingSurface:Detailed,Office-0-0.2.East.InternalWall,Wall,WallInternal,Office-0-0,,Zone,Corridor-0-0,NoSun,NoWind,,4,6.0,0.0,0.0,6.0,12.75,0.0,6.0,12.75,3.25,6.0,0.0,3.25;
BuildingSurface:Detailed,Office-0-0.3.North.InternalWall,Wall,WallInternal,Office-0-0,,Zone,Stairs-0-0,NoSun,NoWind,,4,6.0,12.75,0.0,0.0,12.75,0.0,0.0,12.75,3.25,6.0,12.75,3.25;
Zone,Office-0-1;
BuildingSurface:Detailed,Office-0-1.FloorGround,Floor,u-value:FloorGround,Office-0-1,,Ground,,NoSun,NoWind,,4,0.0,15.75,0.0,0.0,26.7,0.0,6.0,26.7,0.0,6.0,15.75,0.0;
BuildingSurface:Detailed,Office-0-1.Ceiling,Ceiling,Ceiling,Office-0-1,,Adiabatic,,NoSun,NoWind,,4,0.0,15.75,3.25,6.0,15.75,3.25,6.0,26.7,3.25,0.0,26.7,3.25;
BuildingSurface:Detailed,Office-0-1.0.West.WallExternal,Wall,u-value:WallExternal,Office-0-1,,Outdoors,,SunExposed,WindExposed,,4,0.0,26.7,0.0,0.0,15.75,0.0,0.0,15.75,3.25,0.0,26.7,3.25;
FenestrationSurface:Detailed,Office-0-1.0.West.WallExternal.0.Window,Window,u-value:Window,Office-0-1.0.West.WallExternal,,,,,4,0.0,25.55,0.6,0.0,24.55,0.6,0.0,24.55,2.4,0.0,25.55,2.4;
FenestrationSurface:Detailed,Office-0-1.0.West.WallExternal.1.Window,Window,u-value:Window,Office-0-1.0.West.WallExternal,,,,,4,0.0,22.95,0.6,0.0,21.95,0.6,0.0,21.95,2.4,0.0,22.95,2.4;
FenestrationSurface:Detailed,Office-0-1.0.West.WallExternal.2.Window,Window,u-value:Window,Office-0-1.0.West.WallExternal,,,,,4,0.0,20.35,0.6,0.0,19.35,0.6,0.0,19.35,2.4,0.0,20.35,2.4;
FenestrationSurface:Detailed,Office-0-1.0.West.WallExternal.3.Window,Window,u-value:Window,Office-0-1.0.West.WallExternal,,,,,4,0.0,17.75,0.01,0.0,16.75,0.01,0.0,16.75,2.4,0.0,17.75,2.4;
BuildingSurface:Detailed,Office-0-1.WallExternal.3.North,Wall,u-value:WallExternal,Office-0-1,,Outdoors,,SunExposed,WindExposed,,4,6.0,26.7,0.0,0.0,26.7,0.0,0.0,26.7,3.25,6.0,26.7,3.25;
FenestrationSurface:Detailed,Office-0-1.WallExternal.3.North.0.Window,Window,u-value:Window,Office-0-1.WallExternal.3.North,,,,,4,5.15,26.7,0.6,4.15,26.7,0.6,4.15,26.7,2.4,5.15,26.7,2.4;
FenestrationSurface:Detailed,Office-0-1.WallExternal.3.North.1.Window,Window,u-value:Window,Office-0-1.WallExternal.3.North,,,,,4,2.55,26.7,0.6,1.55,26.7,0.6,1.55,26.7,2.4,2.55,26.7,2.4;
BuildingSurface:Detailed,Office-0-1.WallInternal.1.South,Wall,WallInternal,Office-0-1,,Zone,Stairs-0-0,NoSun,NoWind,,4,0.0,15.75,0.0,6.0,15.75,0.0,6.0,15.75,3.25,0.0,15.75,3.25;
BuildingSurface:Detailed,Office-0-1.WallInternal.2.East,Wall,WallInternal,Office-0-1,,Zone,Corridor-0-0,NoSun,NoWind,,4,6.0,15.75,0.0,6.0,26.7,0.0,6.0,26.7,3.25,6.0,15.75,3.25;
Zone,Office-0-2;
BuildingSurface:Detailed,Office-0-2.FloorGround,Floor,u-value:FloorGround,Office-0-2,,Ground,,NoSun,NoWind,,4,8.5,15.75,0.0,8.5,26.7,0.0,14.5,26.7,0.0,14.5,15.75,0.0;
BuildingSurface:Detailed,Office-0-2.Ceiling,Ceiling,Ceiling,Office-0-2,,Adiabatic,,NoSun,NoWind,,4,8.5,15.75,3.25,14.5,15.75,3.25,14.5,26.7,3.25,8.5,26.7,3.25;
BuildingSurface:Detailed,Office-0-2.WallExternal.2.East,Wall,u-value:WallExternal,Office-0-2,,Outdoors,,SunExposed,WindExposed,,4,14.5,15.75,0.0,14.5,26.7,0.0,14.5,26.7,3.25,14.5,15.75,3.25;
FenestrationSurface:Detailed,Office-0-2.WallExternal.2.East.0.Window,Window,u-value:Window,Office-0-2.WallExternal.2.East,,,,,4,14.5,24.55,0.6,14.5,25.55,0.6,14.5,25.55,2.4,14.5,24.55,2.4;
FenestrationSurface:Detailed,Office-0-2.WallExternal.2.East.1.Window,Window,u-value:Window,Office-0-2.WallExternal.2.East,,,,,4,14.5,21.95,0.6,14.5,22.95,0.6,14.5,22.95,2.4,14.5,21.95,2.4;
FenestrationSurface:Detailed,Office-0-2.WallExternal.2.East.2.Window,Window,u-value:Window,Office-0-2.WallExternal.2.East,,,,,4,14.5,19.35,0.6,14.5,20.35,0.6,14.5,20.35,2.4,14.5,19.35,2.4;
FenestrationSurface:Detailed,Office-0-2.WallExternal.2.East.3.Window,Window,u-value:Window,Office-0-2.WallExternal.2.East,,,,,4,14.5,16.75,0.01,14.5,17.75,0.01,14.5,17.75,2.4,14.5,16.75,2.4;
BuildingSurface:Detailed,Office-0-2.WallExternal.1.North,Wall,u-value:WallExternal,Office-0-2,,Outdoors,,SunExposed,WindExposed,,4,14.5,26.7,0.0,8.5,26.7,0.0,8.5,26.7,3.25,14.5,26.7,3.25;
FenestrationSurface:Detailed,Office-0-2.WallExternal.1.North.0.Window,Window,u-value:Window,Office-0-2.WallExternal.1.North,,,,,4,12.95,26.7,0.6,11.95,26.7,0.6,11.95,26.7,2.4,12.95,26.7,2.4;
FenestrationSurface:Detailed,Office-0-2.WallExternal.1.North.1.Window,Window,u-value:Window,Office-0-2.WallExternal.1.North,,,,,4,10.35,26.7,0.6,9.35,26.7,0.6,9.35,26.7,2.4,10.35,26.7,2.4;
BuildingSurface:Detailed,Office-0-2.WallInternal.3.South,Wall,WallInternal,Office-0-2,,Zone,Technic-0-0,NoSun,NoWind,,4,12.0,15.75,0.0,14.5,15.75,0.0,14.5,15.75,3.25,12.0,15.75,3.25;
BuildingSurface:Detailed,Office-0-2.WallInternal.4.South,Wall,WallInternal,Office-0-2,,Zone,Toilet-0-0,NoSun,NoWind,,4,8.5,15.75,0.0,12.0,15.75,0.0,12.0,15.75,3.25,8.5,15.75,3.25;
BuildingSurface:Detailed,Office-0-2.WallInternal.0.West,Wall,WallInternal,Office-0-2,,Zone,Corridor-0-0,NoSun,NoWind,,4,8.5,26.7,0.0,8.5,15.75,0.0,8.5,15.75,3.25,8.5,26.7,3.25;
Zone,Office-0-3;
BuildingSurface:Detailed,Office-0-3.FloorGround,Floor,u-value:FloorGround,Office-0-3,,Ground,,NoSun,NoWind,,4,8.5,0.0,0.0,8.5,10.5,0.0,14.5,10.5,0.0,14.5,0.0,0.0;
BuildingSurface:Detailed,Office-0-3.Ceiling,Ceiling,Ceiling,Office-0-3,,Adiabatic,,NoSun,NoWind,,4,8.5,0.0,3.25,14.5,0.0,3.25,14.5,10.5,3.25,8.5,10.5,3.25;
BuildingSurface:Detailed,Office-0-3.WallExternal.3.East,Wall,u-value:WallExternal,Office-0-3,,Outdoors,,SunExposed,WindExposed,,4,14.5,0.0,0.0,14.5,10.5,0.0,14.5,10.5,3.25,14.5,0.0,3.25;
FenestrationSurface:Detailed,Office-0-3.WallExternal.3.East.0.Window,Window,u-value:Window,Office-0-3.WallExternal.3.East,,,,,4,14.5,8.95,0.6,14.5,9.95,0.6,14.5,9.95,2.4,14.5,8.95,2.4;
FenestrationSurface:Detailed,Office-0-3.WallExternal.3.East.1.Window,Window,u-value:Window,Office-0-3.WallExternal.3.East,,,,,4,14.5,6.35,0.6,14.5,7.35,0.6,14.5,7.35,2.4,14.5,6.35,2.4;
FenestrationSurface:Detailed,Office-0-3.WallExternal.3.East.2.Window,Window,u-value:Window,Office-0-3.WallExternal.3.East,,,,,4,14.5,3.75,0.6,14.5,4.75,0.6,14.5,4.75,2.4,14.5,3.75,2.4;
FenestrationSurface:Detailed,Office-0-3.WallExternal.3.East.3.Window,Window,u-value:Window,Office-0-3.WallExternal.3.East,,,,,4,14.5,1.15,0.01,14.5,2.15,0.01,14.5,2.15,2.4,14.5,1.15,2.4;
BuildingSurface:Detailed,Office-0-3.WallExternal.4.South,Wall,u-value:WallExternal,Office-0-3,,Outdoors,,SunExposed,WindExposed,,4,8.5,0.0,0.0,14.5,0.0,0.0,14.5,0.0,3.25,8.5,0.0,3.25;
FenestrationSurface:Detailed,Office-0-3.WallExternal.4.South.0.Window,Window,u-value:Window,Office-0-3.WallExternal.4.South,,,,,4,11.95,0.0,0.6,12.95,0.0,0.6,12.95,0.0,2.4,11.95,0.0,2.4;
FenestrationSurface:Detailed,Office-0-3.WallExternal.4.South.1.Window,Window,u-value:Window,Office-0-3.WallExternal.4.South,,,,,4,9.35,0.0,0.6,10.35,0.0,0.6,10.35,0.0,2.4,9.35,0.0,2.4;
BuildingSurface:Detailed,Office-0-3.WallInternal.2.North,Wall,WallInternal,Office-0-3,,Zone,Technic-0-0,NoSun,NoWind,,4,14.5,10.5,0.0,12.0,10.5,0.0,12.0,10.5,3.25,14.5,10.5,3.25;
BuildingSurface:Detailed,Office-0-3.WallInternal.1.North,Wall,WallInternal,Office-0-3,,Zone,Toilet-0-0,NoSun,NoWind,,4,12.0,10.5,0.0,8.5,10.5,0.0,8.5,10.5,3.25,12.0,10.5,3.25;
BuildingSurface:Detailed,Office-0-3.WallInternal.0.West,Wall,WallInternal,Office-0-3,,Zone,Corridor-0-0,NoSun,NoWind,,4,8.5,10.5,0.0,8.5,0.0,0.0,8.5,0.0,3.25,8.5,10.5,3.25;
Zone,Toilet-0-0;
BuildingSurface:Detailed,Toilet-0-0.FloorGround,Floor,u-value:FloorGround,Toilet-0-0,,Ground,,NoSun,NoWind,,4,8.5,10.5,0.0,8.5,15.75,0.0,12.0,15.75,0.0,12.0,10.5,0.0;
BuildingSurface:Detailed,Toilet-0-0.Ceiling,Ceiling,Ceiling,Toilet-0-0,,Adiabatic,,NoSun,NoWind,,4,8.5,10.5,3.25,12.0,10.5,3.25,12.0,15.75,3.25,8.5,15.75,3.25;
BuildingSurface:Detailed,Toilet-0-0.WallInternal.0.West,Wall,WallInternal,Toilet-0-0,,Zone,Corridor-0-0,NoSun,NoWind,,4,8.5,15.75,0.0,8.5,10.5,0.0,8.5,10.5,3.25,8.5,15.75,3.25;
BuildingSurface:Detailed,Toilet-0-0.WallInternal.1.East,Wall,WallInternal,Toilet-0-0,,Zone,Technic-0-0,NoSun,NoWind,,4,12.0,10.5,0.0,12.0,15.75,0.0,12.0,15.75,3.25,12.0,10.5,3.25;
Zone,Stairs-0-0;
BuildingSurface:Detailed,Stairs-0-0.FloorGround,Floor,u-value:FloorGround,Stairs-0-0,,Ground,,NoSun,NoWind,,4,0.0,12.75,0.0,0.0,15.75,0.0,6.0,15.75,0.0,6.0,12.75,0.0;
BuildingSurface:Detailed,Stairs-0-0.Ceiling,Ceiling,Ceiling,Stairs-0-0,,Adiabatic,,NoSun,NoWind,,4,0.0,12.75,3.25,6.0,12.75,3.25,6.0,15.75,3.25,0.0,15.75,3.25;
BuildingSurface:Detailed,Stairs-0-0.0.West.WallExternal,Wall,u-value:WallExternal,Stairs-0-0,,Outdoors,,SunExposed,WindExposed,,4,0.0,15.75,0.0,0.0,12.75,0.0,0.0,12.75,3.25,0.0,15.75,3.25;
FenestrationSurface:Detailed,Stairs-0-0.0.West.WallExternal.0.Window,Window,u-value:Window,Stairs-0-0.0.West.WallExternal,,,,,4,0.0,15.15,0.6,0.0,14.15,0.6,0.0,14.15,2.4,0.0,15.15,2.4;
BuildingSurface:Detailed,Stairs-0-0.0.East.WallInternal,Wall,WallInternal,Stairs-0-0,,Zone,Corridor-0-0,NoSun,NoWind,,4,6.0,12.75,0.0,6.0,15.75,0.0,6.0,15.75,3.25,6.0,12.75,3.25;
Zone,Technic-0-0;
BuildingSurface:Detailed,Technic-0-0.FloorGround,Floor,u-value:FloorGround,Technic-0-0,,Ground,,NoSun,NoWind,,4,12.0,10.5,0.0,12.0,15.75,0.0,14.5,15.75,0.0,14.5,10.5,0.0;
BuildingSurface:Detailed,Technic-0-0.Ceiling,Ceiling,Ceiling,Technic-0-0,,Adiabatic,,NoSun,NoWind,,4,12.0,10.5,3.25,14.5,10.5,3.25,14.5,15.75,3.25,12.0,15.75,3.25;
BuildingSurface:Detailed,Technic-0-0.0.East.WallExternal,Wall,u-value:WallExternal,Technic-0-0,,Outdoors,,SunExposed,WindExposed,,4,14.5,10.5,0.0,14.5,15.75,0.0,14.5,15.75,3.25,14.5,10.5,3.25;
FenestrationSurface:Detailed,Technic-0-0.0.East.WallExternal.0.Window,Window,u-value:Window,Technic-0-0.0.East.WallExternal,,,,,4,14.5,11.55,0.01,14.5,12.55,0.01,14.5,12.55,2.4,14.5,11.55,2.4;
FenestrationSurface:Detailed,Technic-0-0.0.East.WallExternal.1.Window,Window,u-value:Window,Technic-0-0.0.East.WallExternal,,,,,4,14.5,14.15,1.8,14.5,15.15,1.8,14.5,15.15,2.4,14.5,14.15,2.4;
Zone,Corridor-0-0;
BuildingSurface:Detailed,Corridor-0-0.FloorGround,Floor,u-value:FloorGround,Corridor-0-0,,Ground,,NoSun,NoWind,,4,6.0,0.0,0.0,6.0,26.7,0.0,8.5,26.7,0.0,8.5,0.0,0.0;
BuildingSurface:Detailed,Corridor-0-0.Ceiling,Ceiling,Ceiling,Corridor-0-0,,Adiabatic,,NoSun,NoWind,,4,6.0,0.0,3.25,8.5,0.0,3.25,8.5,26.7,3.25,6.0,26.7,3.25;
BuildingSurface:Detailed,Corridor-0-0.0.North.WallExternal,Wall,u-value:WallExternal,Corridor-0-0,,Outdoors,,SunExposed,WindExposed,,4,8.5,26.7,0.0,6.0,26.7,0.0,6.0,26.7,3.25,8.5,26.7,3.25;
FenestrationSurface:Detailed,Corridor-0-0.0.North.WallExternal.0.Window,Window,u-value:Window,Corridor-0-0.0.North.WallExternal,,,,,4,7.75,26.7,0.6,6.75,26.7,0.6,6.75,26.7,2.4,7.75,26.7,2.4;
BuildingSurface:Detailed,Corridor-0-0.1.South.WallExternal,Wall,u-value:WallExternal,Corridor-0-0,,Outdoors,,SunExposed,WindExposed,,4,6.0,0.0,0.0,8.5,0.0,0.0,8.5,0.0,3.25,6.0,0.0,3.25;
FenestrationSurface:Detailed,Corridor-0-0.1.South.WallExternal.0.Window,Window,u-value:Window,Corridor-0-0.1.South.WallExternal,,,,,4,6.75,0.0,0.6,7.75,0.0,0.6,7.75,0.0,2.4,6.75,0.0,2.4;
Zone,Office-1-0;
BuildingSurface:Detailed,Office-1-0.0.FloorInternal,Floor,FloorInternal,Office-1-0,,Adiabatic,,NoSun,NoWind,,4,0.0,0.0,3.25,0.0,10.5,3.25,6.0,10.5,3.25,6.0,0.0,3.25;
BuildingSurface:Detailed,Office-1-0.1.Ceiling,Ceiling,Ceiling,Office-1-0,,Adiabatic,,NoSun,NoWind,,4,0.0,0.0,6.5,6.0,0.0,6.5,6.0,10.5,6.5,0.0,10.5,6.5;
BuildingSurface:Detailed,Office-1-0.0.West.WallExternal,Wall,u-value:WallExternal,Office-1-0,,Outdoors,,SunExposed,WindExposed,,4,0.0,10.5,3.25,0.0,0.0,3.25,0.0,0.0,6.5,0.0,10.5,6.5;
FenestrationSurface:Detailed,Office-1-0.0.West.WallExternal.0.Window,Window,u-value:Window,Office-1-0.0.West.WallExternal,,,,,4,0.0,9.95,3.85,0.0,8.95,3.85,0.0,8.95,5.65,0.0,9.95,5.65;
FenestrationSurface:Detailed,Office-1-0.0.West.WallExternal.1.Window,Window,u-value:Window,Office-1-0.0.West.WallExternal,,,,,4,0.0,7.35,3.85,0.0,6.35,3.85,0.0,6.35,5.65,0.0,7.35,5.65;
FenestrationSurface:Detailed,Office-1-0.0.West.WallExternal.2.Window,Window,u-value:Window,Office-1-0.0.West.WallExternal,,,,,4,0.0,4.75,3.85,0.0,3.75,3.85,0.0,3.75,5.65,0.0,4.75,5.65;
FenestrationSurface:Detailed,Office-1-0.0.West.WallExternal.3.Window,Window,u-value:Window,Office-1-0.0.West.WallExternal,,,,,4,0.0,2.15,3.85,0.0,1.15,3.85,0.0,1.15,5.65,0.0,2.15,5.65;
BuildingSurface:Detailed,Office-1-0.1.South.WallExternal,Wall,u-value:WallExternal,Office-1-0,,Outdoors,,SunExposed,WindExposed,,4,0.0,0.0,3.25,6.0,0.0,3.25,6.0,0.0,6.5,0.0,0.0,6.5;
FenestrationSurface:Detailed,Office-1-0.1.South.WallExternal.0.Window,Window,u-value:Window,Office-1-0.1.South.WallExternal,,,,,4,1.55,0.0,3.85,2.55,0.0,3.85,2.55,0.0,5.65,1.55,0.0,5.65;
FenestrationSurface:Detailed,Office-1-0.1.South.WallExternal.1.Window,Window,u-value:Window,Office-1-0.1.South.WallExternal,,,,,4,4.15,0.0,3.85,5.15,0.0,3.85,5.15,0.0,5.65,4.15,0.0,5.65;
BuildingSurface:Detailed,Office-1-0.2.East.InternalWall,Wall,WallInternal,Office-1-0,,Zone,Corridor-1-0,NoSun,NoWind,,4,6.0,0.0,3.25,6.0,10.5,3.25,6.0,10.5,6.5,6.0,0.0,6.5;
BuildingSurface:Detailed,Office-1-0.3.North.InternalWall,Wall,WallInternal,Office-1-0,,Zone,Stairs-1-0,NoSun,NoWind,,4,6.0,10.5,3.25,0.0,10.5,3.25,0.0,10.5,6.5,6.0,10.5,6.5;
Zone,Office-1-1;
BuildingSurface:Detailed,Office-1-1.FloorInternal,Floor,FloorInternal,Office-1-1,,Adiabatic,,NoSun,NoWind,,4,0.0,15.75,3.25,0.0,26.7,3.25,6.0,26.7,3.25,6.0,15.75,3.25;
BuildingSurface:Detailed,Office-1-1.Ceiling,Ceiling,Ceiling,Office-1-1,,Adiabatic,,NoSun,NoWind,,4,0.0,15.75,6.5,6.0,15.75,6.5,6.0,26.7,6.5,0.0,26.7,6.5;
BuildingSurface:Detailed,Office-1-1.0.West.WallExternal,Wall,u-value:WallExternal,Office-1-1,,Outdoors,,SunExposed,WindExposed,,4,0.0,26.7,3.25,0.0,15.75,3.25,0.0,15.75,6.5,0.0,26.7,6.5;
FenestrationSurface:Detailed,Office-1-1.0.West.WallExternal.0.Window,Window,u-value:Window,Office-1-1.0.West.WallExternal,,,,,4,0.0,25.55,3.85,0.0,24.55,3.85,0.0,24.55,5.65,0.0,25.55,5.65;
FenestrationSurface:Detailed,Office-1-1.0.West.WallExternal.1.Window,Window,u-value:Window,Office-1-1.0.West.WallExternal,,,,,4,0.0,22.95,3.85,0.0,21.95,3.85,0.0,21.95,5.65,0.0,22.95,5.65;
FenestrationSurface:Detailed,Office-1-1.0.West.WallExternal.2.Window,Window,u-value:Window,Office-1-1.0.West.WallExternal,,,,,4,0.0,20.35,3.85,0.0,19.35,3.85,0.0,19.35,5.65,0.0,20.35,5.65;
FenestrationSurface:Detailed,Office-1-1.0.West.WallExternal.3.Window,Window,u-value:Window,Office-1-1.0.West.WallExternal,,,,,4,0.0,17.75,3.85,0.0,16.75,3.85,0.0,16.75,5.65,0.0,17.75,5.65;
BuildingSurface:Detailed,Office-1-1.WallExternal.3.North,Wall,u-value:WallExternal,Office-1-1,,Outdoors,,SunExposed,WindExposed,,4,6.0,26.7,3.25,0.0,26.7,3.25,0.0,26.7,6.5,6.0,26.7,6.5;
FenestrationSurface:Detailed,Office-1-1.WallExternal.3.North.0.Window,Window,u-value:Window,Office-1-1.WallExternal.3.North,,,,,4,5.15,26.7,3.85,4.15,26.7,3.85,4.15,26.7,5.65,5.15,26.7,5.65;
FenestrationSurface:Detailed,Office-1-1.WallExternal.3.North.1.Window,Window,u-value:Window,Office-1-1.WallExternal.3.North,,,,,4,2.55,26.7,3.85,1.55,26.7,3.85,1.55,26.7,5.65,2.55,26.7,5.65;
BuildingSurface:Detailed,Office-1-1.WallInternal.1.South,Wall,WallInternal,Office-1-1,,Zone,Stairs-1-0,NoSun,NoWind,,4,0.0,15.75,3.25,6.0,15.75,3.25,6.0,15.75,6.5,0.0,15.75,6.5;
BuildingSurface:Detailed,Office-1-1.WallInternal.2.East,Wall,WallInternal,Office-1-1,,Zone,Corridor-1-0,NoSun,NoWind,,4,6.0,15.75,3.25,6.0,26.7,3.25,6.0,26.7,6.5,6.0,15.75,6.5;
Zone,Office-1-2;
BuildingSurface:Detailed,Office-1-2.FloorInternal,Floor,FloorInternal,Office-1-2,,Adiabatic,,NoSun,NoWind,,4,8.5,15.75,3.25,8.5,26.7,3.25,14.5,26.7,3.25,14.5,15.75,3.25;
BuildingSurface:Detailed,Office-1-2.Ceiling,Ceiling,Ceiling,Office-1-2,,Adiabatic,,NoSun,NoWind,,4,8.5,15.75,6.5,14.5,15.75,6.5,14.5,26.7,6.5,8.5,26.7,6.5;
BuildingSurface:Detailed,Office-1-2.WallExternal.2.East,Wall,u-value:WallExternal,Office-1-2,,Outdoors,,SunExposed,WindExposed,,4,14.5,15.75,3.25,14.5,26.7,3.25,14.5,26.7,6.5,14.5,15.75,6.5;
FenestrationSurface:Detailed,Office-1-2.WallExternal.2.East.0.Window,Window,u-value:Window,Office-1-2.WallExternal.2.East,,,,,4,14.5,24.55,3.85,14.5,25.55,3.85,14.5,25.55,5.65,14.5,24.55,5.65;
FenestrationSurface:Detailed,Office-1-2.WallExternal.2.East.1.Window,Window,u-value:Window,Office-1-2.WallExternal.2.East,,,,,4,14.5,21.95,3.85,14.5,22.95,3.85,14.5,22.95,5.65,14.5,21.95,5.65;
FenestrationSurface:Detailed,Office-1-2.WallExternal.2.East.2.Window,Window,u-value:Window,Office-1-2.WallExternal.2.East,,,,,4,14.5,19.35,3.85,14.5,20.35,3.85,14.5,20.35,5.65,14.5,19.35,5.65;
FenestrationSurface:Detailed,Office-1-2.WallExternal.2.East.3.Window,Window,u-value:Window,Office-1-2.WallExternal.2.East,,,,,4,14.5,16.75,3.85,14.5,17.75,3.85,14.5,17.75,5.65,14.5,16.75,5.65;
BuildingSurface:Detailed,Office-1-2.WallExternal.1.North,Wall,u-value:WallExternal,Office-1-2,,Outdoors,,SunExposed,WindExposed,,4,14.5,26.7,3.25,8.5,26.7,3.25,8.5,26.7,6.5,14.5,26.7,6.5;
FenestrationSurface:Detailed,Office-1-2.WallExternal.1.North.0.Window,Window,u-value:Window,Office-1-2.WallExternal.1.North,,,,,4,12.95,26.7,3.85,11.95,26.7,3.85,11.95,26.7,5.65,12.95,26.7,5.65;
FenestrationSurface:Detailed,Office-1-2.WallExternal.1.North.1.Window,Window,u-value:Window,Office-1-2.WallExternal.1.North,,,,,4,10.35,26.7,3.85,9.35,26.7,3.85,9.35,26.7,5.65,10.35,26.7,5.65;
BuildingSurface:Detailed,Office-1-2.WallInternal.3.South,Wall,WallInternal,Office-1-2,,Zone,Service-1-0,NoSun,NoWind,,4,12.0,15.75,3.25,14.5,15.75,3.25,14.5,15.75,6.5,12.0,15.75,6.5;
BuildingSurface:Detailed,Office-1-2.WallInternal.4.South,Wall,WallInternal,Office-1-2,,Zone,Toilet-1-0,NoSun,NoWind,,4,8.5,15.75,3.25,12.0,15.75,3.25,12.0,15.75,6.5,8.5,15.75,6.5;
BuildingSurface:Detailed,Office-1-2.WallInternal.0.West,Wall,WallInternal,Office-1-2,,Zone,Corridor-1-0,NoSun,NoWind,,4,8.5,26.7,3.25,8.5,15.75,3.25,8.5,15.75,6.5,8.5,26.7,6.5;
Zone,Office-1-3;
BuildingSurface:Detailed,Office-1-3.FloorInternal,Floor,FloorInternal,Office-1-3,,Adiabatic,,NoSun,NoWind,,4,8.5,0.0,3.25,8.5,10.5,3.25,14.5,10.5,3.25,14.5,0.0,3.25;
BuildingSurface:Detailed,Office-1-3.Ceiling,Ceiling,Ceiling,Office-1-3,,Adiabatic,,NoSun,NoWind,,4,8.5,0.0,6.5,14.5,0.0,6.5,14.5,10.5,6.5,8.5,10.5,6.5;
BuildingSurface:Detailed,Office-1-3.WallExternal.3.East,Wall,u-value:WallExternal,Office-1-3,,Outdoors,,SunExposed,WindExposed,,4,14.5,0.0,3.25,14.5,10.5,3.25,14.5,10.5,6.5,14.5,0.0,6.5;
FenestrationSurface:Detailed,Office-1-3.WallExternal.3.East.0.Window,Window,u-value:Window,Office-1-3.WallExternal.3.East,,,,,4,14.5,8.95,3.85,14.5,9.95,3.85,14.5,9.95,5.65,14.5,8.95,5.65;
FenestrationSurface:Detailed,Office-1-3.WallExternal.3.East.1.Window,Window,u-value:Window,Office-1-3.WallExternal.3.East,,,,,4,14.5,6.35,3.85,14.5,7.35,3.85,14.5,7.35,5.65,14.5,6.35,5.65;
FenestrationSurface:Detailed,Office-1-3.WallExternal.3.East.2.Window,Window,u-value:Window,Office-1-3.WallExternal.3.East,,,,,4,14.5,3.75,3.85,14.5,4.75,3.85,14.5,4.75,5.65,14.5,3.75,5.65;
FenestrationSurface:Detailed,Office-1-3.WallExternal.3.East.3.Window,Window,u-value:Window,Office-1-3.WallExternal.3.East,,,,,4,14.5,1.15,3.85,14.5,2.15,3.85,14.5,2.15,5.65,14.5,1.15,5.65;
BuildingSurface:Detailed,Office-1-3.WallExternal.4.South,Wall,u-value:WallExternal,Office-1-3,,Outdoors,,SunExposed,WindExposed,,4,8.5,0.0,3.25,14.5,0.0,3.25,14.5,0.0,6.5,8.5,0.0,6.5;
FenestrationSurface:Detailed,Office-1-3.WallExternal.4.South.0.Window,Window,u-value:Window,Office-1-3.WallExternal.4.South,,,,,4,11.95,0.0,3.85,12.95,0.0,3.85,12.95,0.0,5.65,11.95,0.0,5.65;
FenestrationSurface:Detailed,Office-1-3.WallExternal.4.South.1.Window,Window,u-value:Window,Office-1-3.WallExternal.4.South,,,,,4,9.35,0.0,3.85,10.35,0.0,3.85,10.35,0.0,5.65,9.35,0.0,5.65;
BuildingSurface:Detailed,Office-1-3.WallInternal.2.North,Wall,WallInternal,Office-1-3,,Zone,Service-1-0,NoSun,NoWind,,4,14.5,10.5,3.25,12.0,10.5,3.25,12.0,10.5,6.5,14.5,10.5,6.5;
BuildingSurface:Detailed,Office-1-3.WallInternal.1.North,Wall,WallInternal,Office-1-3,,Zone,Toilet-1-0,NoSun,NoWind,,4,12.0,10.5,3.25,8.5,10.5,3.25,8.5,10.5,6.5,12.0,10.5,6.5;
BuildingSurface:Detailed,Office-1-3.WallInternal.0.West,Wall,WallInternal,Office-1-3,,Zone,Corridor-1-0,NoSun,NoWind,,4,8.5,10.5,3.25,8.5,0.0,3.25,8.5,0.0,6.5,8.5,10.5,6.5;
Zone,Toilet-1-0;
BuildingSurface:Detailed,Toilet-1-0.FloorInternal,Floor,FloorInternal,Toilet-1-0,,Adiabatic,,NoSun,NoWind,,4,8.5,10.5,3.25,8.5,15.75,3.25,12.0,15.75,3.25,12.0,10.5,3.25;
BuildingSurface:Detailed,Toilet-1-0.Ceiling,Ceiling,Ceiling,Toilet-1-0,,Adiabatic,,NoSun,NoWind,,4,8.5,10.5,6.5,12.0,10.5,6.5,12.0,15.75,6.5,8.5,15.75,6.5;
BuildingSurface:Detailed,Toilet-1-0.WallInternal.0.West,Wall,WallInternal,Toilet-1-0,,Zone,Corridor-1-0,NoSun,NoWind,,4,8.5,15.75,3.25,8.5,10.5,3.25,8.5,10.5,6.5,8.5,15.75,6.5;
BuildingSurface:Detailed,Toilet-1-0.WallInternal.1.East,Wall,WallInternal,Toilet-1-0,,Zone,Service-1-0,NoSun,NoWind,,4,12.0,10.5,3.25,12.0,15.75,3.25,12.0,15.75,6.5,12.0,10.5,6.5;
Zone,Stairs-1-0;
BuildingSurface:Detailed,Stairs-1-0.FloorInternal,Floor,FloorInternal,Stairs-1-0,,Adiabatic,,NoSun,NoWind,,4,0.0,10.5,3.25,0.0,15.75,3.25,6.0,15.75,3.25,6.0,10.5,3.25;
BuildingSurface:Detailed,Stairs-1-0.Ceiling,Ceiling,Ceiling,Stairs-1-0,,Adiabatic,,NoSun,NoWind,,4,0.0,10.5,6.5,6.0,10.5,6.5,6.0,15.75,6.5,0.0,15.75,6.5;
BuildingSurface:Detailed,Stairs-1-0.0.West.WallExternal,Wall,u-value:WallExternal,Stairs-1-0,,Outdoors,,SunExposed,WindExposed,,4,0.0,15.75,3.25,0.0,10.5,3.25,0.0,10.5,6.5,0.0,15.75,6.5;
FenestrationSurface:Detailed,Stairs-1-0.0.West.WallExternal.0.Window,Window,u-value:Window,Stairs-1-0.0.West.WallExternal,,,,,4,0.0,15.15,3.85,0.0,14.15,3.85,0.0,14.15,5.65,0.0,15.15,5.65;
BuildingSurface:Detailed,Stairs-1-0.0.East.WallInternal,Wall,WallInternal,Stairs-1-0,,Zone,Corridor-1-0,NoSun,NoWind,,4,6.0,10.5,3.25,6.0,15.75,3.25,6.0,15.75,6.5,6.0,10.5,6.5;
Zone,Service-1-0;
BuildingSurface:Detailed,Service-1-0.FloorInternal,Floor,FloorInternal,Service-1-0,,Adiabatic,,NoSun,NoWind,,4,12.0,10.5,3.25,12.0,15.75,3.25,14.5,15.75,3.25,14.5,10.5,3.25;
BuildingSurface:Detailed,Service-1-0.Ceiling,Ceiling,Ceiling,Service-1-0,,Adiabatic,,NoSun,NoWind,,4,12.0,10.5,6.5,14.5,10.5,6.5,14.5,15.75,6.5,12.0,15.75,6.5;
BuildingSurface:Detailed,Service-1-0.0.East.WallExternal,Wall,u-value:WallExternal,Service-1-0,,Outdoors,,SunExposed,WindExposed,,4,14.5,10.5,3.25,14.5,15.75,3.25,14.5,15.75,6.5,14.5,10.5,6.5;
FenestrationSurface:Detailed,Service-1-0.0.East.WallExternal.0.Window,Window,u-value:Window,Service-1-0.0.East.WallExternal,,,,,4,14.5,11.55,5.05,14.5,12.55,5.05,14.5,12.55,5.65,14.5,11.55,5.65;
FenestrationSurface:Detailed,Service-1-0.0.East.WallExternal.1.Window,Window,u-value:Window,Service-1-0.0.East.WallExternal,,,,,4,14.5,14.15,5.05,14.5,15.15,5.05,14.5,15.15,5.65,14.5,14.15,5.65;
Zone,Corridor-1-0;
BuildingSurface:Detailed,Corridor-1-0.FloorInternal,Floor,FloorInternal,Corridor-1-0,,Adiabatic,,NoSun,NoWind,,4,6.0,0.0,3.25,6.0,26.7,3.25,8.5,26.7,3.25,8.5,0.0,3.25;
BuildingSurface:Detailed,Corridor-1-0.Ceiling,Ceiling,Ceiling,Corridor-1-0,,Adiabatic,,NoSun,NoWind,,4,6.0,0.0,6.5,8.5,0.0,6.5,8.5,26.7,6.5,6.0,26.7,6.5;
BuildingSurface:Detailed,Corridor-1-0.0.North.WallExternal,Wall,u-value:WallExternal,Corridor-1-0,,Outdoors,,SunExposed,WindExposed,,4,8.5,26.7,3.25,6.0,26.7,3.25,6.0,26.7,6.5,8.5,26.7,6.5;
FenestrationSurface:Detailed,Corridor-1-0.0.North.WallExternal.0.Window,Window,u-value:Window,Corridor-1-0.0.North.WallExternal,,,,,4,7.75,26.7,3.85,6.75,26.7,3.85,6.75,26.7,5.65,7.75,26.7,5.65;
BuildingSurface:Detailed,Corridor-1-0.1.South.WallExternal,Wall,u-value:WallExternal,Corridor-1-0,,Outdoors,,SunExposed,WindExposed,,4,6.0,0.0,3.25,8.5,0.0,3.25,8.5,0.0,6.5,6.0,0.0,6.5;
FenestrationSurface:Detailed,Corridor-1-0.1.South.WallExternal.0.Window,Window,u-value:Window,Corridor-1-0.1.South.WallExternal,,,,,4,6.75,0.0,3.85,7.75,0.0,3.85,7.75,0.0,5.65,6.75,0.0,5.65;
Zone,Office-2-0;
BuildingSurface:Detailed,Office-2-0.0.FloorInternal,Floor,FloorInternal,Office-2-0,,Adiabatic,,NoSun,NoWind,,4,0.0,0.0,6.5,0.0,10.5,6.5,6.0,10.5,6.5,6.0,0.0,6.5;
BuildingSurface:Detailed,Office-2-0.1.Roof,Roof,u-value:Roof,Office-2-0,,Outdoors,,SunExposed,WindExposed,,4,0.0,0.0,9.75,6.0,0.0,9.75,6.0,10.5,9.75,0.0,10.5,9.75;
BuildingSurface:Detailed,Office-2-0.0.West.WallExternal,Wall,u-value:WallExternal,Office-2-0,,Outdoors,,SunExposed,WindExposed,,4,0.0,10.5,6.5,0.0,0.0,6.5,0.0,0.0,9.75,0.0,10.5,9.75;
FenestrationSurface:Detailed,Office-2-0.0.West.WallExternal.0.Window,Window,u-value:Window,Office-2-0.0.West.WallExternal,,,,,4,0.0,9.95,7.1,0.0,8.95,7.1,0.0,8.95,8.9,0.0,9.95,8.9;
FenestrationSurface:Detailed,Office-2-0.0.West.WallExternal.1.Window,Window,u-value:Window,Office-2-0.0.West.WallExternal,,,,,4,0.0,7.35,7.1,0.0,6.35,7.1,0.0,6.35,8.9,0.0,7.35,8.9;
FenestrationSurface:Detailed,Office-2-0.0.West.WallExternal.2.Window,Window,u-value:Window,Office-2-0.0.West.WallExternal,,,,,4,0.0,4.75,7.1,0.0,3.75,7.1,0.0,3.75,8.9,0.0,4.75,8.9;